5r82_ligand.pdb
 OpenBabel02162209233D

 20 20  0  0  0  0  0  0  0  0999 V2000
   12.7970    0.0400   23.3210 C   0  0  0  0  0  0  0  0  0  0  0  0
    8.9400   -0.0330   27.7960 C   0  0  0  0  0  0  0  0  0  0  0  0
    9.0630   -0.5050   26.3550 C   0  0  0  0  0  0  0  0  0  0  0  0
   10.9300   -0.2520   24.6430 C   0  0  0  0  0  0  0  0  0  0  0  0
   10.5710   -1.3900   23.9310 C   0  0  0  0  0  0  0  0  0  0  0  0
   11.3650   -1.8190   22.8780 C   0  0  0  0  0  0  0  0  0  0  0  0
   12.5050   -1.0870   22.5650 C   0  0  0  0  0  0  0  0  0  0  0  0
   13.4250   -1.5160   21.4290 C   0  0  0  0  0  0  0  0  0  0  0  0
   10.1320    0.2510   25.7380 N   0  0  0  0  0  0  0  0  0  0  0  0
   14.1170   -1.8210   20.5770 N   0  0  0  0  0  0  0  0  0  0  0  0
   12.0140    0.4250   24.3230 N   0  0  0  0  0  0  0  0  0  0  0  0
   13.6410    0.5911   23.0998 H   0  0  0  0  0  0  0  0  0  0  0  0
    8.1555   -0.5739   28.2828 H   0  0  0  0  0  0  0  0  0  0  0  0
    8.7145    1.0129   27.8107 H   0  0  0  0  0  0  0  0  0  0  0  0
    9.8635   -0.2060   28.3080 H   0  0  0  0  0  0  0  0  0  0  0  0
    9.2937   -1.5496   26.3314 H   0  0  0  0  0  0  0  0  0  0  0  0
    8.1432   -0.3537   25.8296 H   0  0  0  0  0  0  0  0  0  0  0  0
    9.7182   -1.9131   24.1844 H   0  0  0  0  0  0  0  0  0  0  0  0
   11.1153   -2.6627   22.3387 H   0  0  0  0  0  0  0  0  0  0  0  0
   10.3252    1.1532   26.0815 H   0  0  0  0  0  0  0  0  0  0  0  0
  1 11  1  0  0  0  0
  1 12  1  0  0  0  0
  2 13  1  0  0  0  0
  2 14  1  0  0  0  0
  2 15  1  0  0  0  0
  3  2  1  0  0  0  0
  3 16  1  0  0  0  0
  3 17  1  0  0  0  0
  4  9  1  0  0  0  0
  5  4  1  0  0  0  0
  5 18  1  0  0  0  0
  6  5  2  0  0  0  0
  6 19  1  0  0  0  0
  7  6  1  0  0  0  0
  7  1  2  0  0  0  0
  8  7  1  0  0  0  0
  9  3  1  0  0  0  0
  9 20  1  0  0  0  0
 10  8  3  0  0  0  0
 11  4  2  0  0  0  0
M  END
$$$$
