Row0


 12 13  0  0  0  0  0  0  0  0999 V2000
   10.0846    1.6673   22.5986 C   0  0  0  0  0  0  0  0  0  0  0  0
    8.9543    1.7747   21.7686 C   0  0  0  0  0  0  0  0  0  0  0  0
    8.4632    0.6200   21.1188 C   0  0  0  0  0  0  0  0  0  0  0  0
    9.1206   -0.6151   21.3208 C   0  0  0  0  0  0  0  0  0  0  0  0
   10.2444   -0.6662   22.1638 C   0  0  0  0  0  0  0  0  0  0  0  0
   10.6883    0.4643   22.7703 N   0  0  0  0  0  0  0  0  0  0  0  0
    7.3306    0.6990   20.2789 C   0  0  0  0  0  0  0  0  0  0  0  0
    7.2700   -0.0552   19.0847 C   0  0  0  0  0  0  0  0  0  0  0  0
    6.1318    0.0439   18.2656 C   0  0  0  0  0  0  0  0  0  0  0  0
    5.1052    0.8551   18.6276 N   0  0  0  0  0  0  0  0  0  0  0  0
    5.1270    1.5919   19.7669 C   0  0  0  0  0  0  0  0  0  0  0  0
    6.2426    1.5332   20.6211 C   0  0  0  0  0  0  0  0  0  0  0  0
  1  2  2  0  0  0
  1  6  1  0  0  0
  2  3  1  0  0  0
  3  4  2  0  0  0
  3  7  1  0  0  0
  4  5  1  0  0  0
  5  6  2  0  0  0
  7  8  2  0  0  0
  7 12  1  0  0  0
  8  9  1  0  0  0
  9 10  2  0  0  0
 10 11  1  0  0  0
 11 12  2  0  0  0
M  END
> <minimizedAffinity>
-4.62911

$$$$
Row0


 12 13  0  0  0  0  0  0  0  0999 V2000
    5.1709    1.5991   19.8590 C   0  0  0  0  0  0  0  0  0  0  0  0
    6.2825    1.4919   20.7139 C   0  0  0  0  0  0  0  0  0  0  0  0
    7.3914    0.7150   20.3097 C   0  0  0  0  0  0  0  0  0  0  0  0
    7.3555    0.0656   19.0546 C   0  0  0  0  0  0  0  0  0  0  0  0
    6.2202    0.2094   18.2381 C   0  0  0  0  0  0  0  0  0  0  0  0
    5.1731    0.9630   18.6604 N   0  0  0  0  0  0  0  0  0  0  0  0
    8.5206    0.5893   21.1487 C   0  0  0  0  0  0  0  0  0  0  0  0
    9.0500    1.7199   21.8118 C   0  0  0  0  0  0  0  0  0  0  0  0
   10.1762    1.5672   22.6393 C   0  0  0  0  0  0  0  0  0  0  0  0
   10.7401    0.3424   22.7966 N   0  0  0  0  0  0  0  0  0  0  0  0
   10.2585   -0.7652   22.1782 C   0  0  0  0  0  0  0  0  0  0  0  0
    9.1361   -0.6687   21.3365 C   0  0  0  0  0  0  0  0  0  0  0  0
  1  2  2  0  0  0
  1  6  1  0  0  0
  2  3  1  0  0  0
  3  4  2  0  0  0
  3  7  1  0  0  0
  4  5  1  0  0  0
  5  6  2  0  0  0
  7  8  2  0  0  0
  7 12  1  0  0  0
  8  9  1  0  0  0
  9 10  2  0  0  0
 10 11  1  0  0  0
 11 12  2  0  0  0
M  END
> <minimizedAffinity>
-4.61010

$$$$
Row0


 12 13  0  0  0  0  0  0  0  0999 V2000
    6.2129    0.2263   18.2494 C   0  0  0  0  0  0  0  0  0  0  0  0
    7.3499    0.0569   19.0596 C   0  0  0  0  0  0  0  0  0  0  0  0
    7.4040    0.7011   20.3161 C   0  0  0  0  0  0  0  0  0  0  0  0
    6.3123    1.4995   20.7274 C   0  0  0  0  0  0  0  0  0  0  0  0
    5.1991    1.6318   19.8792 C   0  0  0  0  0  0  0  0  0  0  0  0
    5.1831    0.9988   18.6784 N   0  0  0  0  0  0  0  0  0  0  0  0
    8.5339    0.5492   21.1498 C   0  0  0  0  0  0  0  0  0  0  0  0
    9.1249   -0.7221   21.3310 C   0  0  0  0  0  0  0  0  0  0  0  0
   10.2474   -0.8457   22.1682 C   0  0  0  0  0  0  0  0  0  0  0  0
   10.7536    0.2504   22.7889 N   0  0  0  0  0  0  0  0  0  0  0  0
   10.2145    1.4863   22.6372 C   0  0  0  0  0  0  0  0  0  0  0  0
    9.0887    1.6663   21.8138 C   0  0  0  0  0  0  0  0  0  0  0  0
  1  2  2  0  0  0
  1  6  1  0  0  0
  2  3  1  0  0  0
  3  4  2  0  0  0
  3  7  1  0  0  0
  4  5  1  0  0  0
  5  6  2  0  0  0
  7  8  2  0  0  0
  7 12  1  0  0  0
  8  9  1  0  0  0
  9 10  2  0  0  0
 10 11  1  0  0  0
 11 12  2  0  0  0
M  END
> <minimizedAffinity>
-4.60863

$$$$
Row0


 12 13  0  0  0  0  0  0  0  0999 V2000
    5.5578   -3.7410   22.0324 C   0  0  0  0  0  0  0  0  0  0  0  0
    6.1790   -3.7472   23.2942 C   0  0  0  0  0  0  0  0  0  0  0  0
    7.0819   -4.7861   23.6135 C   0  0  0  0  0  0  0  0  0  0  0  0
    7.3387   -5.7932   22.6553 C   0  0  0  0  0  0  0  0  0  0  0  0
    6.6927   -5.7365   21.4080 C   0  0  0  0  0  0  0  0  0  0  0  0
    5.8304   -4.7235   21.1371 N   0  0  0  0  0  0  0  0  0  0  0  0
    7.7193   -4.8177   24.8735 C   0  0  0  0  0  0  0  0  0  0  0  0
    7.0113   -4.4607   26.0438 C   0  0  0  0  0  0  0  0  0  0  0  0
    7.6704   -4.4986   27.2849 C   0  0  0  0  0  0  0  0  0  0  0  0
    8.9720   -4.8788   27.3494 N   0  0  0  0  0  0  0  0  0  0  0  0
    9.6827   -5.2303   26.2482 C   0  0  0  0  0  0  0  0  0  0  0  0
    9.0734   -5.2069   24.9810 C   0  0  0  0  0  0  0  0  0  0  0  0
  1  2  2  0  0  0
  1  6  1  0  0  0
  2  3  1  0  0  0
  3  4  2  0  0  0
  3  7  1  0  0  0
  4  5  1  0  0  0
  5  6  2  0  0  0
  7  8  2  0  0  0
  7 12  1  0  0  0
  8  9  1  0  0  0
  9 10  2  0  0  0
 10 11  1  0  0  0
 11 12  2  0  0  0
M  END
> <minimizedAffinity>
-4.50140

$$$$
Row0


 12 13  0  0  0  0  0  0  0  0999 V2000
    7.4632   -4.9153   27.2926 C   0  0  0  0  0  0  0  0  0  0  0  0
    6.8178   -4.7799   26.0503 C   0  0  0  0  0  0  0  0  0  0  0  0
    7.5864   -4.8214   24.8654 C   0  0  0  0  0  0  0  0  0  0  0  0
    8.9857   -4.9990   24.9589 C   0  0  0  0  0  0  0  0  0  0  0  0
    9.5788   -5.1324   26.2264 C   0  0  0  0  0  0  0  0  0  0  0  0
    8.8083   -5.0864   27.3432 N   0  0  0  0  0  0  0  0  0  0  0  0
    6.9646   -4.6871   23.6044 C   0  0  0  0  0  0  0  0  0  0  0  0
    7.0519   -5.7247   22.6483 C   0  0  0  0  0  0  0  0  0  0  0  0
    6.4257   -5.5642   21.4000 C   0  0  0  0  0  0  0  0  0  0  0  0
    5.7436   -4.4229   21.1260 N   0  0  0  0  0  0  0  0  0  0  0  0
    5.6366   -3.4070   22.0192 C   0  0  0  0  0  0  0  0  0  0  0  0
    6.2467   -3.5136   23.2818 C   0  0  0  0  0  0  0  0  0  0  0  0
  1  2  2  0  0  0
  1  6  1  0  0  0
  2  3  1  0  0  0
  3  4  2  0  0  0
  3  7  1  0  0  0
  4  5  1  0  0  0
  5  6  2  0  0  0
  7  8  2  0  0  0
  7 12  1  0  0  0
  8  9  1  0  0  0
  9 10  2  0  0  0
 10 11  1  0  0  0
 11 12  2  0  0  0
M  END
> <minimizedAffinity>
-4.45540

$$$$
Row0


 12 13  0  0  0  0  0  0  0  0999 V2000
   11.5386   -1.0665   22.7657 C   0  0  0  0  0  0  0  0  0  0  0  0
   10.3282   -1.3591   22.1119 C   0  0  0  0  0  0  0  0  0  0  0  0
    9.4307   -0.3077   21.8189 C   0  0  0  0  0  0  0  0  0  0  0  0
    9.7732    1.0127   22.1898 C   0  0  0  0  0  0  0  0  0  0  0  0
   10.9977    1.2491   22.8385 C   0  0  0  0  0  0  0  0  0  0  0  0
   11.8343    0.2137   23.1048 N   0  0  0  0  0  0  0  0  0  0  0  0
    8.2078   -0.5729   21.1640 C   0  0  0  0  0  0  0  0  0  0  0  0
    7.9184    0.0262   19.9167 C   0  0  0  0  0  0  0  0  0  0  0  0
    6.6926   -0.2530   19.2875 C   0  0  0  0  0  0  0  0  0  0  0  0
    5.8042   -1.0931   19.8774 N   0  0  0  0  0  0  0  0  0  0  0  0
    6.0483   -1.6878   21.0724 C   0  0  0  0  0  0  0  0  0  0  0  0
    7.2573   -1.4408   21.7470 C   0  0  0  0  0  0  0  0  0  0  0  0
  1  2  2  0  0  0
  1  6  1  0  0  0
  2  3  1  0  0  0
  3  4  2  0  0  0
  3  7  1  0  0  0
  4  5  1  0  0  0
  5  6  2  0  0  0
  7  8  2  0  0  0
  7 12  1  0  0  0
  8  9  1  0  0  0
  9 10  2  0  0  0
 10 11  1  0  0  0
 11 12  2  0  0  0
M  END
> <minimizedAffinity>
-4.42363

$$$$
Row0


 12 13  0  0  0  0  0  0  0  0999 V2000
   11.8896    0.3061   24.6561 C   0  0  0  0  0  0  0  0  0  0  0  0
   10.8774   -0.6699   24.6874 C   0  0  0  0  0  0  0  0  0  0  0  0
   10.7742   -1.5911   23.6209 C   0  0  0  0  0  0  0  0  0  0  0  0
   11.6926   -1.5089   22.5494 C   0  0  0  0  0  0  0  0  0  0  0  0
   12.6870   -0.5154   22.5707 C   0  0  0  0  0  0  0  0  0  0  0  0
   12.7546    0.3532   23.6117 N   0  0  0  0  0  0  0  0  0  0  0  0
    9.7668   -2.5810   23.6259 C   0  0  0  0  0  0  0  0  0  0  0  0
    9.7100   -3.5404   24.6626 C   0  0  0  0  0  0  0  0  0  0  0  0
    8.6982   -4.5162   24.6420 C   0  0  0  0  0  0  0  0  0  0  0  0
    7.7878   -4.5269   23.6351 N   0  0  0  0  0  0  0  0  0  0  0  0
    7.8096   -3.6213   22.6248 C   0  0  0  0  0  0  0  0  0  0  0  0
    8.8021   -2.6254   22.5944 C   0  0  0  0  0  0  0  0  0  0  0  0
  1  2  2  0  0  0
  1  6  1  0  0  0
  2  3  1  0  0  0
  3  4  2  0  0  0
  3  7  1  0  0  0
  4  5  1  0  0  0
  5  6  2  0  0  0
  7  8  2  0  0  0
  7 12  1  0  0  0
  8  9  1  0  0  0
  9 10  2  0  0  0
 10 11  1  0  0  0
 11 12  2  0  0  0
M  END
> <minimizedAffinity>
-4.39944

$$$$
Row0


 12 13  0  0  0  0  0  0  0  0999 V2000
   11.7038    1.0872   23.0667 C   0  0  0  0  0  0  0  0  0  0  0  0
   10.4655    1.4464   22.5048 C   0  0  0  0  0  0  0  0  0  0  0  0
    9.6412    0.4408   21.9517 C   0  0  0  0  0  0  0  0  0  0  0  0
   10.0821   -0.9020   21.9783 C   0  0  0  0  0  0  0  0  0  0  0  0
   11.3275   -1.2055   22.5555 C   0  0  0  0  0  0  0  0  0  0  0  0
   12.0930   -0.2126   23.0761 N   0  0  0  0  0  0  0  0  0  0  0  0
    8.3932    0.7732   21.3801 C   0  0  0  0  0  0  0  0  0  0  0  0
    7.5839    1.7767   21.9601 C   0  0  0  0  0  0  0  0  0  0  0  0
    6.3450    2.0863   21.3722 C   0  0  0  0  0  0  0  0  0  0  0  0
    5.9403    1.4258   20.2574 N   0  0  0  0  0  0  0  0  0  0  0  0
    6.6908    0.4588   19.6718 C   0  0  0  0  0  0  0  0  0  0  0  0
    7.9370    0.1070   20.2205 C   0  0  0  0  0  0  0  0  0  0  0  0
  1  2  2  0  0  0
  1  6  1  0  0  0
  2  3  1  0  0  0
  3  4  2  0  0  0
  3  7  1  0  0  0
  4  5  1  0  0  0
  5  6  2  0  0  0
  7  8  2  0  0  0
  7 12  1  0  0  0
  8  9  1  0  0  0
  9 10  2  0  0  0
 10 11  1  0  0  0
 11 12  2  0  0  0
M  END
> <minimizedAffinity>
-4.30600

$$$$
Row0


 12 13  0  0  0  0  0  0  0  0999 V2000
   12.2618    1.0670   23.2488 C   0  0  0  0  0  0  0  0  0  0  0  0
   10.9294    0.7862   22.8968 C   0  0  0  0  0  0  0  0  0  0  0  0
   10.6161   -0.4682   22.3268 C   0  0  0  0  0  0  0  0  0  0  0  0
   11.6507   -1.4102   22.1258 C   0  0  0  0  0  0  0  0  0  0  0  0
   12.9648   -1.0785   22.4991 C   0  0  0  0  0  0  0  0  0  0  0  0
   13.2283    0.1371   23.0429 N   0  0  0  0  0  0  0  0  0  0  0  0
    9.2867   -0.7766   21.9629 C   0  0  0  0  0  0  0  0  0  0  0  0
    8.6401   -1.9108   22.5051 C   0  0  0  0  0  0  0  0  0  0  0  0
    7.3173   -2.1960   22.1242 C   0  0  0  0  0  0  0  0  0  0  0  0
    6.6747   -1.3832   21.2472 N   0  0  0  0  0  0  0  0  0  0  0  0
    7.2621   -0.2852   20.7081 C   0  0  0  0  0  0  0  0  0  0  0  0
    8.5852    0.0449   21.0520 C   0  0  0  0  0  0  0  0  0  0  0  0
  1  2  2  0  0  0
  1  6  1  0  0  0
  2  3  1  0  0  0
  3  4  2  0  0  0
  3  7  1  0  0  0
  4  5  1  0  0  0
  5  6  2  0  0  0
  7  8  2  0  0  0
  7 12  1  0  0  0
  8  9  1  0  0  0
  9 10  2  0  0  0
 10 11  1  0  0  0
 11 12  2  0  0  0
M  END
> <minimizedAffinity>
-4.26774

$$$$
Row1


 10 11  0  0  0  0  0  0  0  0999 V2000
   12.2517    0.0036   23.2945 C   0  0  0  0  0  0  0  0  0  0  0  0
   11.7442   -1.1692   22.4090 C   0  0  0  0  0  0  0  0  0  0  0  0
   10.2050   -1.3767   22.3977 C   0  0  0  0  0  0  0  0  0  0  0  0
    9.4851   -0.3525   21.7020 N   0  0  0  0  0  0  0  0  0  0  0  0
    8.6664   -0.5498   20.7195 N   0  0  0  0  0  0  0  0  0  0  0  0
    8.1800    0.5887   20.3391 N   0  0  0  0  0  0  0  0  0  0  0  0
    8.6714    1.5415   21.0616 N   0  0  0  0  0  0  0  0  0  0  0  0
    9.5040    0.9689   21.9409 C   0  0  0  0  0  0  0  0  0  0  0  0
   10.2842    1.6779   22.9728 C   0  0  0  0  0  0  0  0  0  0  0  0
   11.8108    1.4249   22.8485 C   0  0  0  0  0  0  0  0  0  0  0  0
  1  2  1  0  0  0
  1 10  1  0  0  0
  2  3  1  0  0  0
  3  4  1  0  0  0
  4  5  1  0  0  0
  4  8  1  0  0  0
  5  6  2  0  0  0
  6  7  1  0  0  0
  7  8  2  0  0  0
  8  9  1  0  0  0
  9 10  1  0  0  0
M  END
> <minimizedAffinity>
-4.29802

$$$$
Row1


 10 11  0  0  0  0  0  0  0  0999 V2000
   10.7110   -2.0104   23.9934 C   0  0  0  0  0  0  0  0  0  0  0  0
   11.0803   -0.5403   24.3392 C   0  0  0  0  0  0  0  0  0  0  0  0
   11.4264    0.3625   23.1237 C   0  0  0  0  0  0  0  0  0  0  0  0
   10.2996    0.6893   22.3024 N   0  0  0  0  0  0  0  0  0  0  0  0
    9.9148    1.8881   22.0035 N   0  0  0  0  0  0  0  0  0  0  0  0
    8.8769    1.8191   21.2317 N   0  0  0  0  0  0  0  0  0  0  0  0
    8.5687    0.5822   21.0169 N   0  0  0  0  0  0  0  0  0  0  0  0
    9.4619   -0.1597   21.6850 C   0  0  0  0  0  0  0  0  0  0  0  0
    9.5002   -1.6339   21.7195 C   0  0  0  0  0  0  0  0  0  0  0  0
    9.4128   -2.2016   23.1618 C   0  0  0  0  0  0  0  0  0  0  0  0
  1  2  1  0  0  0
  1 10  1  0  0  0
  2  3  1  0  0  0
  3  4  1  0  0  0
  4  5  1  0  0  0
  4  8  1  0  0  0
  5  6  2  0  0  0
  6  7  1  0  0  0
  7  8  2  0  0  0
  8  9  1  0  0  0
  9 10  1  0  0  0
M  END
> <minimizedAffinity>
-4.21770

$$$$
Row1


 10 11  0  0  0  0  0  0  0  0999 V2000
    7.5214    0.4308   22.3552 C   0  0  0  0  0  0  0  0  0  0  0  0
    7.5613   -0.9403   21.6233 C   0  0  0  0  0  0  0  0  0  0  0  0
    6.2575   -1.3342   20.8767 C   0  0  0  0  0  0  0  0  0  0  0  0
    6.0014   -0.5547   19.7028 N   0  0  0  0  0  0  0  0  0  0  0  0
    5.8199   -1.0316   18.5136 N   0  0  0  0  0  0  0  0  0  0  0  0
    5.5967   -0.0529   17.6951 N   0  0  0  0  0  0  0  0  0  0  0  0
    5.6300    1.0713   18.3325 N   0  0  0  0  0  0  0  0  0  0  0  0
    5.8828    0.7801   19.6154 C   0  0  0  0  0  0  0  0  0  0  0  0
    6.0019    1.7602   20.7114 C   0  0  0  0  0  0  0  0  0  0  0  0
    7.3692    1.6783   21.4420 C   0  0  0  0  0  0  0  0  0  0  0  0
  1  2  1  0  0  0
  1 10  1  0  0  0
  2  3  1  0  0  0
  3  4  1  0  0  0
  4  5  1  0  0  0
  4  8  1  0  0  0
  5  6  2  0  0  0
  6  7  1  0  0  0
  7  8  2  0  0  0
  8  9  1  0  0  0
  9 10  1  0  0  0
M  END
> <minimizedAffinity>
-4.05833

$$$$
Row1


 10 11  0  0  0  0  0  0  0  0999 V2000
    8.6695   -2.2026   22.7832 C   0  0  0  0  0  0  0  0  0  0  0  0
    7.3102   -2.7210   22.2346 C   0  0  0  0  0  0  0  0  0  0  0  0
    6.2889   -1.6198   21.8389 C   0  0  0  0  0  0  0  0  0  0  0  0
    6.6480   -0.8898   20.6602 N   0  0  0  0  0  0  0  0  0  0  0  0
    5.9091   -0.7624   19.6055 N   0  0  0  0  0  0  0  0  0  0  0  0
    6.5313   -0.0273   18.7395 N   0  0  0  0  0  0  0  0  0  0  0  0
    7.6796    0.3334   19.2113 N   0  0  0  0  0  0  0  0  0  0  0  0
    7.7782   -0.1999   20.4362 C   0  0  0  0  0  0  0  0  0  0  0  0
    8.9240   -0.0428   21.3519 C   0  0  0  0  0  0  0  0  0  0  0  0
    9.5415   -1.4023   21.7771 C   0  0  0  0  0  0  0  0  0  0  0  0
  1  2  1  0  0  0
  1 10  1  0  0  0
  2  3  1  0  0  0
  3  4  1  0  0  0
  4  5  1  0  0  0
  4  8  1  0  0  0
  5  6  2  0  0  0
  6  7  1  0  0  0
  7  8  2  0  0  0
  8  9  1  0  0  0
  9 10  1  0  0  0
M  END
> <minimizedAffinity>
-4.02506

$$$$
Row1


 10 11  0  0  0  0  0  0  0  0999 V2000
    7.4879   -5.0995   23.9996 C   0  0  0  0  0  0  0  0  0  0  0  0
    7.4548   -4.4617   22.5820 C   0  0  0  0  0  0  0  0  0  0  0  0
    7.6975   -2.9283   22.5364 C   0  0  0  0  0  0  0  0  0  0  0  0
    9.0448   -2.5437   22.8331 N   0  0  0  0  0  0  0  0  0  0  0  0
    9.8051   -1.8310   22.0658 N   0  0  0  0  0  0  0  0  0  0  0  0
   10.9495   -1.6579   22.6472 N   0  0  0  0  0  0  0  0  0  0  0  0
   10.9550   -2.2522   23.7953 N   0  0  0  0  0  0  0  0  0  0  0  0
    9.7515   -2.8221   23.9406 C   0  0  0  0  0  0  0  0  0  0  0  0
    9.3064   -3.6035   25.1100 C   0  0  0  0  0  0  0  0  0  0  0  0
    8.8558   -5.0406   24.7335 C   0  0  0  0  0  0  0  0  0  0  0  0
  1  2  1  0  0  0
  1 10  1  0  0  0
  2  3  1  0  0  0
  3  4  1  0  0  0
  4  5  1  0  0  0
  4  8  1  0  0  0
  5  6  2  0  0  0
  6  7  1  0  0  0
  7  8  2  0  0  0
  8  9  1  0  0  0
  9 10  1  0  0  0
M  END
> <minimizedAffinity>
-3.90487

$$$$
Row1


 10 11  0  0  0  0  0  0  0  0999 V2000
    5.8563   -0.4016   19.5646 C   0  0  0  0  0  0  0  0  0  0  0  0
    7.2851    0.1581   19.3147 C   0  0  0  0  0  0  0  0  0  0  0  0
    8.0921    0.5170   20.5924 C   0  0  0  0  0  0  0  0  0  0  0  0
    8.5168   -0.6212   21.3509 N   0  0  0  0  0  0  0  0  0  0  0  0
    9.7399   -0.8863   21.6800 N   0  0  0  0  0  0  0  0  0  0  0  0
    9.7633   -1.9782   22.3762 N   0  0  0  0  0  0  0  0  0  0  0  0
    8.5638   -2.4412   22.5107 N   0  0  0  0  0  0  0  0  0  0  0  0
    7.7488   -1.5932   21.8695 C   0  0  0  0  0  0  0  0  0  0  0  0
    6.2828   -1.7222   21.7674 C   0  0  0  0  0  0  0  0  0  0  0  0
    5.7868   -1.7698   20.2971 C   0  0  0  0  0  0  0  0  0  0  0  0
  1  2  1  0  0  0
  1 10  1  0  0  0
  2  3  1  0  0  0
  3  4  1  0  0  0
  4  5  1  0  0  0
  4  8  1  0  0  0
  5  6  2  0  0  0
  6  7  1  0  0  0
  7  8  2  0  0  0
  8  9  1  0  0  0
  9 10  1  0  0  0
M  END
> <minimizedAffinity>
-3.86385

$$$$
Row1


 10 11  0  0  0  0  0  0  0  0999 V2000
    7.8420   -1.4750   23.1082 C   0  0  0  0  0  0  0  0  0  0  0  0
    8.8269   -2.6778   23.1269 C   0  0  0  0  0  0  0  0  0  0  0  0
    8.1955   -4.0493   23.4912 C   0  0  0  0  0  0  0  0  0  0  0  0
    7.3391   -4.5836   22.4752 N   0  0  0  0  0  0  0  0  0  0  0  0
    7.4691   -5.7469   21.9234 N   0  0  0  0  0  0  0  0  0  0  0  0
    6.5175   -5.9146   21.0609 N   0  0  0  0  0  0  0  0  0  0  0  0
    5.7568   -4.8696   21.0350 N   0  0  0  0  0  0  0  0  0  0  0  0
    6.2559   -4.0067   21.9298 C   0  0  0  0  0  0  0  0  0  0  0  0
    5.7005   -2.6764   22.2429 C   0  0  0  0  0  0  0  0  0  0  0  0
    6.7279   -1.5327   22.0272 C   0  0  0  0  0  0  0  0  0  0  0  0
  1  2  1  0  0  0
  1 10  1  0  0  0
  2  3  1  0  0  0
  3  4  1  0  0  0
  4  5  1  0  0  0
  4  8  1  0  0  0
  5  6  2  0  0  0
  6  7  1  0  0  0
  7  8  2  0  0  0
  8  9  1  0  0  0
  9 10  1  0  0  0
M  END
> <minimizedAffinity>
-3.84966

$$$$
Row1


 10 11  0  0  0  0  0  0  0  0999 V2000
    8.7094   -2.5942   22.5399 C   0  0  0  0  0  0  0  0  0  0  0  0
    9.9068   -2.1740   23.4383 C   0  0  0  0  0  0  0  0  0  0  0  0
   10.9920   -1.3103   22.7393 C   0  0  0  0  0  0  0  0  0  0  0  0
   10.5676    0.0236   22.4364 N   0  0  0  0  0  0  0  0  0  0  0  0
   11.1655    1.1043   22.8227 N   0  0  0  0  0  0  0  0  0  0  0  0
   10.5259    2.1305   22.3585 N   0  0  0  0  0  0  0  0  0  0  0  0
    9.5061    1.7386   21.6674 N   0  0  0  0  0  0  0  0  0  0  0  0
    9.5109    0.3994   21.6977 C   0  0  0  0  0  0  0  0  0  0  0  0
    8.5291   -0.4786   21.0334 C   0  0  0  0  0  0  0  0  0  0  0  0
    7.8132   -1.4344   22.0253 C   0  0  0  0  0  0  0  0  0  0  0  0
  1  2  1  0  0  0
  1 10  1  0  0  0
  2  3  1  0  0  0
  3  4  1  0  0  0
  4  5  1  0  0  0
  4  8  1  0  0  0
  5  6  2  0  0  0
  6  7  1  0  0  0
  7  8  2  0  0  0
  8  9  1  0  0  0
  9 10  1  0  0  0
M  END
> <minimizedAffinity>
-3.82909

$$$$
Row1


 10 11  0  0  0  0  0  0  0  0999 V2000
   10.3421   -1.1881   23.0292 C   0  0  0  0  0  0  0  0  0  0  0  0
   10.7138   -2.4130   23.9118 C   0  0  0  0  0  0  0  0  0  0  0  0
    9.5247   -3.0868   24.6496 C   0  0  0  0  0  0  0  0  0  0  0  0
    8.6333   -3.8006   23.7853 N   0  0  0  0  0  0  0  0  0  0  0  0
    8.3126   -5.0483   23.9077 N   0  0  0  0  0  0  0  0  0  0  0  0
    7.4756   -5.3637   22.9709 N   0  0  0  0  0  0  0  0  0  0  0  0
    7.2390   -4.3339   22.2261 N   0  0  0  0  0  0  0  0  0  0  0  0
    7.9618   -3.3225   22.7252 C   0  0  0  0  0  0  0  0  0  0  0  0
    7.9958   -1.9468   22.1938 C   0  0  0  0  0  0  0  0  0  0  0  0
    9.4285   -1.4887   21.8093 C   0  0  0  0  0  0  0  0  0  0  0  0
  1  2  1  0  0  0
  1 10  1  0  0  0
  2  3  1  0  0  0
  3  4  1  0  0  0
  4  5  1  0  0  0
  4  8  1  0  0  0
  5  6  2  0  0  0
  6  7  1  0  0  0
  7  8  2  0  0  0
  8  9  1  0  0  0
  9 10  1  0  0  0
M  END
> <minimizedAffinity>
-3.76218

$$$$
Row2


  8  8  0  0  0  0  0  0  0  0999 V2000
    6.8515   -0.0699   18.7671 C   0  0  0  0  0  0  0  0  0  0  0  0
    5.7973    0.8718   18.1283 C   0  0  0  0  0  0  0  0  0  0  0  0
    4.7787    1.3661   19.1862 C   0  0  0  0  0  0  0  0  0  0  0  0
    5.4690    1.9775   20.3449 N   0  0  0  0  0  0  0  0  0  0  0  0
    6.4279    1.0723   21.0204 C   0  0  0  0  0  0  0  0  0  0  0  0
    7.5018    0.5479   20.0337 C   0  0  0  0  0  0  0  0  0  0  0  0
    4.7638    2.2629   21.0243 H   0  0  0  0  0  0  0  0  0  0  0  0
    6.0088    2.7648   19.9855 H   0  0  0  0  0  0  0  0  0  0  0  0
  1  2  1  0  0  0
  1  6  1  0  0  0
  2  3  1  0  0  0
  3  4  1  0  0  0
  4  5  1  0  0  0
  4  7  1  0  0  0
  4  8  1  0  0  0
  5  6  1  0  0  0
M  CHG 1   4   1
M  END
> <minimizedAffinity>
-3.09612

$$$$
Row2


  8  8  0  0  0  0  0  0  0  0999 V2000
    5.8578    1.6233   20.3860 C   0  0  0  0  0  0  0  0  0  0  0  0
    4.9852    1.3826   19.1263 C   0  0  0  0  0  0  0  0  0  0  0  0
    5.8589    0.9736   17.9137 C   0  0  0  0  0  0  0  0  0  0  0  0
    6.7217   -0.1833   18.2453 N   0  0  0  0  0  0  0  0  0  0  0  0
    7.6207    0.0478   19.4002 C   0  0  0  0  0  0  0  0  0  0  0  0
    6.8219    0.4403   20.6689 C   0  0  0  0  0  0  0  0  0  0  0  0
    7.2956   -0.3996   17.4302 H   0  0  0  0  0  0  0  0  0  0  0  0
    6.1010   -0.9506   18.5028 H   0  0  0  0  0  0  0  0  0  0  0  0
  1  2  1  0  0  0
  1  6  1  0  0  0
  2  3  1  0  0  0
  3  4  1  0  0  0
  4  5  1  0  0  0
  4  7  1  0  0  0
  4  8  1  0  0  0
  5  6  1  0  0  0
M  CHG 1   4   1
M  END
> <minimizedAffinity>
-3.05894

$$$$
Row2


  8  8  0  0  0  0  0  0  0  0999 V2000
   11.9759    0.1000   24.4535 C   0  0  0  0  0  0  0  0  0  0  0  0
   12.8427    0.4554   23.2172 C   0  0  0  0  0  0  0  0  0  0  0  0
   13.1857   -0.8122   22.3947 C   0  0  0  0  0  0  0  0  0  0  0  0
   11.9605   -1.5649   22.0409 N   0  0  0  0  0  0  0  0  0  0  0  0
   11.1520   -1.9825   23.2101 C   0  0  0  0  0  0  0  0  0  0  0  0
   10.7435   -0.7659   24.0788 C   0  0  0  0  0  0  0  0  0  0  0  0
   12.2353   -2.4011   21.5255 H   0  0  0  0  0  0  0  0  0  0  0  0
   11.3775   -0.9370   21.4875 H   0  0  0  0  0  0  0  0  0  0  0  0
  1  2  1  0  0  0
  1  6  1  0  0  0
  2  3  1  0  0  0
  3  4  1  0  0  0
  4  5  1  0  0  0
  4  7  1  0  0  0
  4  8  1  0  0  0
  5  6  1  0  0  0
M  CHG 1   4   1
M  END
> <minimizedAffinity>
-3.05882

$$$$
Row2


  8  8  0  0  0  0  0  0  0  0999 V2000
   11.4831   -1.4430   22.5167 C   0  0  0  0  0  0  0  0  0  0  0  0
   12.7182   -0.5181   22.6757 C   0  0  0  0  0  0  0  0  0  0  0  0
   12.3919    0.6954   23.5822 C   0  0  0  0  0  0  0  0  0  0  0  0
   11.8324    0.2548   24.8806 N   0  0  0  0  0  0  0  0  0  0  0  0
   10.6067   -0.5689   24.7593 C   0  0  0  0  0  0  0  0  0  0  0  0
   10.8527   -1.8232   23.8831 C   0  0  0  0  0  0  0  0  0  0  0  0
   11.6089    1.0837   25.4314 H   0  0  0  0  0  0  0  0  0  0  0  0
   12.5398   -0.3315   25.3235 H   0  0  0  0  0  0  0  0  0  0  0  0
  1  2  1  0  0  0
  1  6  1  0  0  0
  2  3  1  0  0  0
  3  4  1  0  0  0
  4  5  1  0  0  0
  4  7  1  0  0  0
  4  8  1  0  0  0
  5  6  1  0  0  0
M  CHG 1   4   1
M  END
> <minimizedAffinity>
-3.01647

$$$$
Row2


  8  8  0  0  0  0  0  0  0  0999 V2000
    5.6989    1.4543   20.3443 C   0  0  0  0  0  0  0  0  0  0  0  0
    7.2211    1.2435   20.5554 C   0  0  0  0  0  0  0  0  0  0  0  0
    7.7138   -0.0294   19.8221 C   0  0  0  0  0  0  0  0  0  0  0  0
    7.3299   -0.0023   18.3921 N   0  0  0  0  0  0  0  0  0  0  0  0
    5.8714    0.1228   18.1628 C   0  0  0  0  0  0  0  0  0  0  0  0
    5.2981    1.3900   18.8463 C   0  0  0  0  0  0  0  0  0  0  0  0
    7.6501   -0.8676   17.9574 H   0  0  0  0  0  0  0  0  0  0  0  0
    7.7650    0.8256   17.9851 H   0  0  0  0  0  0  0  0  0  0  0  0
  1  2  1  0  0  0
  1  6  1  0  0  0
  2  3  1  0  0  0
  3  4  1  0  0  0
  4  5  1  0  0  0
  4  7  1  0  0  0
  4  8  1  0  0  0
  5  6  1  0  0  0
M  CHG 1   4   1
M  END
> <minimizedAffinity>
-2.97986

$$$$
Row2


  8  8  0  0  0  0  0  0  0  0999 V2000
    6.7666    0.3835   20.4558 C   0  0  0  0  0  0  0  0  0  0  0  0
    7.3076    0.0327   19.0450 C   0  0  0  0  0  0  0  0  0  0  0  0
    6.1599   -0.0174   18.0053 C   0  0  0  0  0  0  0  0  0  0  0  0
    5.3703    1.2352   18.0232 N   0  0  0  0  0  0  0  0  0  0  0  0
    4.7785    1.5548   19.3435 C   0  0  0  0  0  0  0  0  0  0  0  0
    5.8665    1.6478   20.4432 C   0  0  0  0  0  0  0  0  0  0  0  0
    4.6134    1.1471   17.3451 H   0  0  0  0  0  0  0  0  0  0  0  0
    6.0138    1.9934   17.7965 H   0  0  0  0  0  0  0  0  0  0  0  0
  1  2  1  0  0  0
  1  6  1  0  0  0
  2  3  1  0  0  0
  3  4  1  0  0  0
  4  5  1  0  0  0
  4  7  1  0  0  0
  4  8  1  0  0  0
  5  6  1  0  0  0
M  CHG 1   4   1
M  END
> <minimizedAffinity>
-2.92069

$$$$
Row2


  8  8  0  0  0  0  0  0  0  0999 V2000
    7.4047    0.0510   18.9265 C   0  0  0  0  0  0  0  0  0  0  0  0
    7.4128    0.3360   20.4513 C   0  0  0  0  0  0  0  0  0  0  0  0
    6.5208    1.5556   20.7944 C   0  0  0  0  0  0  0  0  0  0  0  0
    5.1548    1.3866   20.2482 N   0  0  0  0  0  0  0  0  0  0  0  0
    5.1138    1.1877   18.7805 C   0  0  0  0  0  0  0  0  0  0  0  0
    5.9656   -0.0338   18.3513 C   0  0  0  0  0  0  0  0  0  0  0  0
    4.6133    2.2209   20.4743 H   0  0  0  0  0  0  0  0  0  0  0  0
    4.7697    0.5423   20.6717 H   0  0  0  0  0  0  0  0  0  0  0  0
  1  2  1  0  0  0
  1  6  1  0  0  0
  2  3  1  0  0  0
  3  4  1  0  0  0
  4  5  1  0  0  0
  4  7  1  0  0  0
  4  8  1  0  0  0
  5  6  1  0  0  0
M  CHG 1   4   1
M  END
> <minimizedAffinity>
-2.91207

$$$$
Row2


  8  8  0  0  0  0  0  0  0  0999 V2000
   10.2697    0.4143   22.5298 C   0  0  0  0  0  0  0  0  0  0  0  0
   11.2780   -0.1279   23.5765 C   0  0  0  0  0  0  0  0  0  0  0  0
   12.6377    0.6079   23.4729 C   0  0  0  0  0  0  0  0  0  0  0  0
   12.4566    2.0753   23.5552 N   0  0  0  0  0  0  0  0  0  0  0  0
   11.5556    2.6297   22.5177 C   0  0  0  0  0  0  0  0  0  0  0  0
   10.1580    1.9619   22.5669 C   0  0  0  0  0  0  0  0  0  0  0  0
   13.3704    2.5174   23.4562 H   0  0  0  0  0  0  0  0  0  0  0  0
   12.0226    2.2693   24.4577 H   0  0  0  0  0  0  0  0  0  0  0  0
  1  2  1  0  0  0
  1  6  1  0  0  0
  2  3  1  0  0  0
  3  4  1  0  0  0
  4  5  1  0  0  0
  4  7  1  0  0  0
  4  8  1  0  0  0
  5  6  1  0  0  0
M  CHG 1   4   1
M  END
> <minimizedAffinity>
-2.91183

$$$$
Row2


  8  8  0  0  0  0  0  0  0  0999 V2000
    7.3429    0.2432   18.8984 C   0  0  0  0  0  0  0  0  0  0  0  0
    5.8880   -0.2700   18.7375 C   0  0  0  0  0  0  0  0  0  0  0  0
    5.6026   -1.4466   19.7045 C   0  0  0  0  0  0  0  0  0  0  0  0
    5.9319   -1.0799   21.1009 N   0  0  0  0  0  0  0  0  0  0  0  0
    7.3385   -0.6573   21.2965 C   0  0  0  0  0  0  0  0  0  0  0  0
    7.7027    0.5376   20.3793 C   0  0  0  0  0  0  0  0  0  0  0  0
    5.7544   -1.8894   21.6956 H   0  0  0  0  0  0  0  0  0  0  0  0
    5.3468   -0.2800   21.3422 H   0  0  0  0  0  0  0  0  0  0  0  0
  1  2  1  0  0  0
  1  6  1  0  0  0
  2  3  1  0  0  0
  3  4  1  0  0  0
  4  5  1  0  0  0
  4  7  1  0  0  0
  4  8  1  0  0  0
  5  6  1  0  0  0
M  CHG 1   4   1
M  END
> <minimizedAffinity>
-2.84551

$$$$
Row3


 19 22  0  0  0  0  0  0  0  0999 V2000
   12.6168    0.7495   23.2262 C   0  0  0  0  0  0  0  0  0  0  0  0
   12.9049   -0.6004   22.5242 C   0  0  0  0  0  0  0  0  0  0  0  0
   11.8608   -1.6772   22.9126 C   0  0  0  0  0  0  0  0  0  0  0  0
   10.4543   -1.2062   22.6876 N   0  0  0  0  0  0  0  0  0  0  0  0
    9.4561   -2.2985   22.9506 C   0  0  0  0  0  0  0  0  0  0  0  0
    7.9656   -1.8466   22.8308 C   0  0  0  0  0  0  0  0  0  0  0  0
    7.7499   -0.6258   23.7676 C   0  0  0  0  0  0  0  0  0  0  0  0
    8.6437    0.5311   23.2442 C   0  0  0  0  0  0  0  0  0  0  0  0
    8.1714    0.9022   21.7980 C   0  0  0  0  0  0  0  0  0  0  0  0
    8.2288   -0.2581   20.8480 N   0  0  0  0  0  0  0  0  0  0  0  0
    7.8645    0.0710   19.4317 C   0  0  0  0  0  0  0  0  0  0  0  0
    6.3356    0.1320   19.1759 C   0  0  0  0  0  0  0  0  0  0  0  0
    5.6358   -1.1554   19.6787 C   0  0  0  0  0  0  0  0  0  0  0  0
    6.0049   -1.4619   21.1511 C   0  0  0  0  0  0  0  0  0  0  0  0
    7.5549   -1.5090   21.3531 C   0  0  0  0  0  0  0  0  0  0  0  0
   10.1464    0.0898   23.3977 C   0  0  0  0  0  0  0  0  0  0  0  0
   11.1563    1.2021   22.9768 C   0  0  0  0  0  0  0  0  0  0  0  0
   10.3678   -0.9793   21.6969 H   0  0  0  0  0  0  0  0  0  0  0  0
    9.2236   -0.4810   20.8165 H   0  0  0  0  0  0  0  0  0  0  0  0
  1  2  1  0  0  0
  1 17  1  0  0  0
  2  3  1  0  0  0
  3  4  1  0  0  0
  4  5  1  0  0  0
  4 16  1  0  0  0
  4 18  1  0  0  0
  5  6  1  0  0  0
  6  7  1  0  0  0
  6 15  1  0  0  0
  7  8  1  0  0  0
  8  9  1  0  0  0
  8 16  1  0  0  0
  9 10  1  0  0  0
 10 11  1  0  0  0
 10 15  1  0  0  0
 10 19  1  0  0  0
 11 12  1  0  0  0
 12 13  1  0  0  0
 13 14  1  0  0  0
 14 15  1  0  0  0
 16 17  1  0  0  0
M  CHG 1   4   1
M  CHG 1  10   1
M  END
> <minimizedAffinity>
-5.69078

$$$$
Row3


 19 22  0  0  0  0  0  0  0  0999 V2000
   10.4049   -2.5755   23.9976 C   0  0  0  0  0  0  0  0  0  0  0  0
    9.0993   -2.6585   24.8261 C   0  0  0  0  0  0  0  0  0  0  0  0
    8.4598   -1.2607   25.0205 C   0  0  0  0  0  0  0  0  0  0  0  0
    8.2635   -0.5440   23.7173 N   0  0  0  0  0  0  0  0  0  0  0  0
    7.5323    0.7555   23.9050 C   0  0  0  0  0  0  0  0  0  0  0  0
    7.3819    1.6002   22.5997 C   0  0  0  0  0  0  0  0  0  0  0  0
    8.7958    1.8128   21.9913 C   0  0  0  0  0  0  0  0  0  0  0  0
    9.3514    0.4176   21.5964 C   0  0  0  0  0  0  0  0  0  0  0  0
    8.4093   -0.1969   20.5069 C   0  0  0  0  0  0  0  0  0  0  0  0
    6.9870   -0.3248   20.9681 N   0  0  0  0  0  0  0  0  0  0  0  0
    6.0655   -0.9850   19.9873 C   0  0  0  0  0  0  0  0  0  0  0  0
    5.5581   -0.0376   18.8685 C   0  0  0  0  0  0  0  0  0  0  0  0
    4.9501    1.2551   19.4678 C   0  0  0  0  0  0  0  0  0  0  0  0
    5.9283    1.9346   20.4575 C   0  0  0  0  0  0  0  0  0  0  0  0
    6.4097    0.9360   21.5604 C   0  0  0  0  0  0  0  0  0  0  0  0
    9.5363   -0.4212   22.9151 C   0  0  0  0  0  0  0  0  0  0  0  0
   10.1663   -1.8260   22.6628 C   0  0  0  0  0  0  0  0  0  0  0  0
    7.6562   -1.1273   23.1416 H   0  0  0  0  0  0  0  0  0  0  0  0
    7.0549   -0.9820   21.7452 H   0  0  0  0  0  0  0  0  0  0  0  0
  1  2  1  0  0  0
  1 17  1  0  0  0
  2  3  1  0  0  0
  3  4  1  0  0  0
  4  5  1  0  0  0
  4 16  1  0  0  0
  4 18  1  0  0  0
  5  6  1  0  0  0
  6  7  1  0  0  0
  6 15  1  0  0  0
  7  8  1  0  0  0
  8  9  1  0  0  0
  8 16  1  0  0  0
  9 10  1  0  0  0
 10 11  1  0  0  0
 10 15  1  0  0  0
 10 19  1  0  0  0
 11 12  1  0  0  0
 12 13  1  0  0  0
 13 14  1  0  0  0
 14 15  1  0  0  0
 16 17  1  0  0  0
M  CHG 1   4   1
M  CHG 1  10   1
M  END
> <minimizedAffinity>
-5.58798

$$$$
Row3


 19 22  0  0  0  0  0  0  0  0999 V2000
    8.3879   -5.1879   25.9594 C   0  0  0  0  0  0  0  0  0  0  0  0
    7.5032   -4.1844   26.7392 C   0  0  0  0  0  0  0  0  0  0  0  0
    8.2320   -2.8347   26.9578 C   0  0  0  0  0  0  0  0  0  0  0  0
    8.7505   -2.2591   25.6731 N   0  0  0  0  0  0  0  0  0  0  0  0
    9.3462   -0.8947   25.8785 C   0  0  0  0  0  0  0  0  0  0  0  0
    9.9946   -0.2794   24.5975 C   0  0  0  0  0  0  0  0  0  0  0  0
   11.0374   -1.2906   24.0456 C   0  0  0  0  0  0  0  0  0  0  0  0
   10.2700   -2.5730   23.6240 C   0  0  0  0  0  0  0  0  0  0  0  0
    9.2670   -2.1935   22.4829 C   0  0  0  0  0  0  0  0  0  0  0  0
    8.2940   -1.1261   22.8903 N   0  0  0  0  0  0  0  0  0  0  0  0
    7.2615   -0.7897   21.8569 C   0  0  0  0  0  0  0  0  0  0  0  0
    7.7705    0.1747   20.7534 C   0  0  0  0  0  0  0  0  0  0  0  0
    8.4148    1.4395   21.3740 C   0  0  0  0  0  0  0  0  0  0  0  0
    9.4961    1.0691   22.4188 C   0  0  0  0  0  0  0  0  0  0  0  0
    8.9315    0.0949   23.5039 C   0  0  0  0  0  0  0  0  0  0  0  0
    9.6463   -3.2123   24.9197 C   0  0  0  0  0  0  0  0  0  0  0  0
    8.9089   -4.5590   24.6428 C   0  0  0  0  0  0  0  0  0  0  0  0
    7.9480   -2.1254   25.0577 H   0  0  0  0  0  0  0  0  0  0  0  0
    7.7715   -1.5673   23.6471 H   0  0  0  0  0  0  0  0  0  0  0  0
  1  2  1  0  0  0
  1 17  1  0  0  0
  2  3  1  0  0  0
  3  4  1  0  0  0
  4  5  1  0  0  0
  4 16  1  0  0  0
  4 18  1  0  0  0
  5  6  1  0  0  0
  6  7  1  0  0  0
  6 15  1  0  0  0
  7  8  1  0  0  0
  8  9  1  0  0  0
  8 16  1  0  0  0
  9 10  1  0  0  0
 10 11  1  0  0  0
 10 15  1  0  0  0
 10 19  1  0  0  0
 11 12  1  0  0  0
 12 13  1  0  0  0
 13 14  1  0  0  0
 14 15  1  0  0  0
 16 17  1  0  0  0
M  CHG 1   4   1
M  CHG 1  10   1
M  END
> <minimizedAffinity>
-5.47217

$$$$
Row3


 19 22  0  0  0  0  0  0  0  0999 V2000
    7.5414    4.5519   24.8089 C   0  0  0  0  0  0  0  0  0  0  0  0
    7.4444    3.5307   25.9689 C   0  0  0  0  0  0  0  0  0  0  0  0
    7.1153    2.1090   25.4486 C   0  0  0  0  0  0  0  0  0  0  0  0
    8.0674    1.6660   24.3771 N   0  0  0  0  0  0  0  0  0  0  0  0
    7.8155    0.2423   23.9668 C   0  0  0  0  0  0  0  0  0  0  0  0
    8.7084   -0.2509   22.7839 C   0  0  0  0  0  0  0  0  0  0  0  0
    8.5315    0.7350   21.5959 C   0  0  0  0  0  0  0  0  0  0  0  0
    9.0650    2.1201   22.0523 C   0  0  0  0  0  0  0  0  0  0  0  0
   10.5897    1.9767   22.3796 C   0  0  0  0  0  0  0  0  0  0  0  0
   10.8668    0.9484   23.4369 N   0  0  0  0  0  0  0  0  0  0  0  0
   12.3057    0.8358   23.8418 C   0  0  0  0  0  0  0  0  0  0  0  0
   13.1656   -0.0141   22.8697 C   0  0  0  0  0  0  0  0  0  0  0  0
   12.5161   -1.3978   22.6174 C   0  0  0  0  0  0  0  0  0  0  0  0
   11.0387   -1.2571   22.1750 C   0  0  0  0  0  0  0  0  0  0  0  0
   10.2198   -0.3905   23.1868 C   0  0  0  0  0  0  0  0  0  0  0  0
    8.1439    2.6331   23.2206 C   0  0  0  0  0  0  0  0  0  0  0  0
    8.5280    4.0603   23.7202 C   0  0  0  0  0  0  0  0  0  0  0  0
    9.0036    1.6802   24.7818 H   0  0  0  0  0  0  0  0  0  0  0  0
   10.3940    1.3280   24.2571 H   0  0  0  0  0  0  0  0  0  0  0  0
  1  2  1  0  0  0
  1 17  1  0  0  0
  2  3  1  0  0  0
  3  4  1  0  0  0
  4  5  1  0  0  0
  4 16  1  0  0  0
  4 18  1  0  0  0
  5  6  1  0  0  0
  6  7  1  0  0  0
  6 15  1  0  0  0
  7  8  1  0  0  0
  8  9  1  0  0  0
  8 16  1  0  0  0
  9 10  1  0  0  0
 10 11  1  0  0  0
 10 15  1  0  0  0
 10 19  1  0  0  0
 11 12  1  0  0  0
 12 13  1  0  0  0
 13 14  1  0  0  0
 14 15  1  0  0  0
 16 17  1  0  0  0
M  CHG 1   4   1
M  CHG 1  10   1
M  END
> <minimizedAffinity>
-5.41792

$$$$
Row3


 19 22  0  0  0  0  0  0  0  0999 V2000
    7.8102   -4.9139   24.2425 C   0  0  0  0  0  0  0  0  0  0  0  0
    7.6288   -4.1700   25.5885 C   0  0  0  0  0  0  0  0  0  0  0  0
    8.7545   -3.1309   25.8198 C   0  0  0  0  0  0  0  0  0  0  0  0
    8.8984   -2.1879   24.6620 N   0  0  0  0  0  0  0  0  0  0  0  0
    9.9069   -1.1108   24.9474 C   0  0  0  0  0  0  0  0  0  0  0  0
   10.1780   -0.1521   23.7444 C   0  0  0  0  0  0  0  0  0  0  0  0
   10.5815   -1.0138   22.5159 C   0  0  0  0  0  0  0  0  0  0  0  0
    9.3657   -1.9078   22.1501 C   0  0  0  0  0  0  0  0  0  0  0  0
    8.1708   -0.9759   21.7551 C   0  0  0  0  0  0  0  0  0  0  0  0
    7.7910   -0.0175   22.8456 N   0  0  0  0  0  0  0  0  0  0  0  0
    6.5979    0.8380   22.5427 C   0  0  0  0  0  0  0  0  0  0  0  0
    6.9181    2.0669   21.6517 C   0  0  0  0  0  0  0  0  0  0  0  0
    8.0956    2.8863   22.2367 C   0  0  0  0  0  0  0  0  0  0  0  0
    9.3256    1.9883   22.5172 C   0  0  0  0  0  0  0  0  0  0  0  0
    8.9467    0.7656   23.4154 C   0  0  0  0  0  0  0  0  0  0  0  0
    9.1146   -2.8977   23.3475 C   0  0  0  0  0  0  0  0  0  0  0  0
    7.9602   -3.9104   23.0717 C   0  0  0  0  0  0  0  0  0  0  0  0
    8.0035   -1.7117   24.5488 H   0  0  0  0  0  0  0  0  0  0  0  0
    7.4853   -0.6344   23.5983 H   0  0  0  0  0  0  0  0  0  0  0  0
  1  2  1  0  0  0
  1 17  1  0  0  0
  2  3  1  0  0  0
  3  4  1  0  0  0
  4  5  1  0  0  0
  4 16  1  0  0  0
  4 18  1  0  0  0
  5  6  1  0  0  0
  6  7  1  0  0  0
  6 15  1  0  0  0
  7  8  1  0  0  0
  8  9  1  0  0  0
  8 16  1  0  0  0
  9 10  1  0  0  0
 10 11  1  0  0  0
 10 15  1  0  0  0
 10 19  1  0  0  0
 11 12  1  0  0  0
 12 13  1  0  0  0
 13 14  1  0  0  0
 14 15  1  0  0  0
 16 17  1  0  0  0
M  CHG 1   4   1
M  CHG 1  10   1
M  END
> <minimizedAffinity>
-5.31816

$$$$
Row3


 19 22  0  0  0  0  0  0  0  0999 V2000
    6.3720   -4.5234   22.6993 C   0  0  0  0  0  0  0  0  0  0  0  0
    5.9153   -3.2290   21.9825 C   0  0  0  0  0  0  0  0  0  0  0  0
    6.0645   -1.9888   22.8991 C   0  0  0  0  0  0  0  0  0  0  0  0
    7.4486   -1.8691   23.4652 N   0  0  0  0  0  0  0  0  0  0  0  0
    7.6169   -0.5997   24.2520 C   0  0  0  0  0  0  0  0  0  0  0  0
    9.0061   -0.4596   24.9524 C   0  0  0  0  0  0  0  0  0  0  0  0
    9.2388   -1.7209   25.8297 C   0  0  0  0  0  0  0  0  0  0  0  0
    9.3040   -2.9476   24.8798 C   0  0  0  0  0  0  0  0  0  0  0  0
   10.5233   -2.7591   23.9155 C   0  0  0  0  0  0  0  0  0  0  0  0
   10.4437   -1.4940   23.1121 N   0  0  0  0  0  0  0  0  0  0  0  0
   11.5482   -1.3126   22.1150 C   0  0  0  0  0  0  0  0  0  0  0  0
   12.8656   -0.7720   22.7306 C   0  0  0  0  0  0  0  0  0  0  0  0
   12.6065    0.5103   23.5605 C   0  0  0  0  0  0  0  0  0  0  0  0
   11.4808    0.2928   24.6014 C   0  0  0  0  0  0  0  0  0  0  0  0
   10.1794   -0.2544   23.9289 C   0  0  0  0  0  0  0  0  0  0  0  0
    7.8936   -3.1099   24.2007 C   0  0  0  0  0  0  0  0  0  0  0  0
    7.8014   -4.3622   23.2747 C   0  0  0  0  0  0  0  0  0  0  0  0
    8.0913   -1.7978   22.6764 H   0  0  0  0  0  0  0  0  0  0  0  0
    9.6041   -1.6309   22.5493 H   0  0  0  0  0  0  0  0  0  0  0  0
  1  2  1  0  0  0
  1 17  1  0  0  0
  2  3  1  0  0  0
  3  4  1  0  0  0
  4  5  1  0  0  0
  4 16  1  0  0  0
  4 18  1  0  0  0
  5  6  1  0  0  0
  6  7  1  0  0  0
  6 15  1  0  0  0
  7  8  1  0  0  0
  8  9  1  0  0  0
  8 16  1  0  0  0
  9 10  1  0  0  0
 10 11  1  0  0  0
 10 15  1  0  0  0
 10 19  1  0  0  0
 11 12  1  0  0  0
 12 13  1  0  0  0
 13 14  1  0  0  0
 14 15  1  0  0  0
 16 17  1  0  0  0
M  CHG 1   4   1
M  CHG 1  10   1
M  END
> <minimizedAffinity>
-5.30039

$$$$
Row3


 19 22  0  0  0  0  0  0  0  0999 V2000
    8.9476   -4.3995   27.0231 C   0  0  0  0  0  0  0  0  0  0  0  0
    9.6468   -5.1620   25.8709 C   0  0  0  0  0  0  0  0  0  0  0  0
    8.7225   -5.2958   24.6347 C   0  0  0  0  0  0  0  0  0  0  0  0
    8.1765   -3.9703   24.1925 N   0  0  0  0  0  0  0  0  0  0  0  0
    7.3821   -4.0946   22.9228 C   0  0  0  0  0  0  0  0  0  0  0  0
    6.7017   -2.7668   22.4603 C   0  0  0  0  0  0  0  0  0  0  0  0
    5.8384   -2.2271   23.6341 C   0  0  0  0  0  0  0  0  0  0  0  0
    6.7991   -1.8888   24.8063 C   0  0  0  0  0  0  0  0  0  0  0  0
    7.7803   -0.7652   24.3298 C   0  0  0  0  0  0  0  0  0  0  0  0
    8.5720   -1.1558   23.1162 N   0  0  0  0  0  0  0  0  0  0  0  0
    9.5843   -0.1427   22.6737 C   0  0  0  0  0  0  0  0  0  0  0  0
    8.9844    1.0191   21.8387 C   0  0  0  0  0  0  0  0  0  0  0  0
    8.1403    0.4773   20.6581 C   0  0  0  0  0  0  0  0  0  0  0  0
    7.0841   -0.5473   21.1409 C   0  0  0  0  0  0  0  0  0  0  0  0
    7.7412   -1.6929   21.9782 C   0  0  0  0  0  0  0  0  0  0  0  0
    7.4580   -3.2316   25.2956 C   0  0  0  0  0  0  0  0  0  0  0  0
    8.3927   -3.0397   26.5299 C   0  0  0  0  0  0  0  0  0  0  0  0
    8.9744   -3.3761   23.9674 H   0  0  0  0  0  0  0  0  0  0  0  0
    9.1231   -1.9483   23.4460 H   0  0  0  0  0  0  0  0  0  0  0  0
  1  2  1  0  0  0
  1 17  1  0  0  0
  2  3  1  0  0  0
  3  4  1  0  0  0
  4  5  1  0  0  0
  4 16  1  0  0  0
  4 18  1  0  0  0
  5  6  1  0  0  0
  6  7  1  0  0  0
  6 15  1  0  0  0
  7  8  1  0  0  0
  8  9  1  0  0  0
  8 16  1  0  0  0
  9 10  1  0  0  0
 10 11  1  0  0  0
 10 15  1  0  0  0
 10 19  1  0  0  0
 11 12  1  0  0  0
 12 13  1  0  0  0
 13 14  1  0  0  0
 14 15  1  0  0  0
 16 17  1  0  0  0
M  CHG 1   4   1
M  CHG 1  10   1
M  END
> <minimizedAffinity>
-5.25229

$$$$
Row3


 19 22  0  0  0  0  0  0  0  0999 V2000
   12.9863   -0.4643   22.5569 C   0  0  0  0  0  0  0  0  0  0  0  0
   12.6365    0.7978   23.3832 C   0  0  0  0  0  0  0  0  0  0  0  0
   11.2722    1.3958   22.9573 C   0  0  0  0  0  0  0  0  0  0  0  0
   10.1746    0.3734   22.9857 N   0  0  0  0  0  0  0  0  0  0  0  0
    8.8362    0.9899   22.6905 C   0  0  0  0  0  0  0  0  0  0  0  0
    7.6623   -0.0372   22.6064 C   0  0  0  0  0  0  0  0  0  0  0  0
    8.0416   -1.1264   21.5651 C   0  0  0  0  0  0  0  0  0  0  0  0
    9.2928   -1.8732   22.1018 C   0  0  0  0  0  0  0  0  0  0  0  0
    8.9109   -2.5646   23.4539 C   0  0  0  0  0  0  0  0  0  0  0  0
    8.4120   -1.5960   24.4858 N   0  0  0  0  0  0  0  0  0  0  0  0
    8.1129   -2.2021   25.8238 C   0  0  0  0  0  0  0  0  0  0  0  0
    6.7322   -2.9056   25.8985 C   0  0  0  0  0  0  0  0  0  0  0  0
    5.6014   -1.9641   25.4138 C   0  0  0  0  0  0  0  0  0  0  0  0
    5.9185   -1.3701   24.0192 C   0  0  0  0  0  0  0  0  0  0  0  0
    7.3200   -0.6769   23.9993 C   0  0  0  0  0  0  0  0  0  0  0  0
   10.4847   -0.8468   22.1530 C   0  0  0  0  0  0  0  0  0  0  0  0
   11.8303   -1.4946   22.6046 C   0  0  0  0  0  0  0  0  0  0  0  0
   10.1167    0.0206   23.9410 H   0  0  0  0  0  0  0  0  0  0  0  0
    9.2198   -0.9944   24.6467 H   0  0  0  0  0  0  0  0  0  0  0  0
  1  2  1  0  0  0
  1 17  1  0  0  0
  2  3  1  0  0  0
  3  4  1  0  0  0
  4  5  1  0  0  0
  4 16  1  0  0  0
  4 18  1  0  0  0
  5  6  1  0  0  0
  6  7  1  0  0  0
  6 15  1  0  0  0
  7  8  1  0  0  0
  8  9  1  0  0  0
  8 16  1  0  0  0
  9 10  1  0  0  0
 10 11  1  0  0  0
 10 15  1  0  0  0
 10 19  1  0  0  0
 11 12  1  0  0  0
 12 13  1  0  0  0
 13 14  1  0  0  0
 14 15  1  0  0  0
 16 17  1  0  0  0
M  CHG 1   4   1
M  CHG 1  10   1
M  END
> <minimizedAffinity>
-5.21436

$$$$
Row3


 19 22  0  0  0  0  0  0  0  0999 V2000
    6.7970    1.4027   21.5152 C   0  0  0  0  0  0  0  0  0  0  0  0
    7.1526    0.3875   20.4012 C   0  0  0  0  0  0  0  0  0  0  0  0
    8.5350   -0.2669   20.6488 C   0  0  0  0  0  0  0  0  0  0  0  0
    8.6379   -0.8661   22.0203 N   0  0  0  0  0  0  0  0  0  0  0  0
    9.9342   -1.6034   22.2063 C   0  0  0  0  0  0  0  0  0  0  0  0
   10.1490   -2.1680   23.6468 C   0  0  0  0  0  0  0  0  0  0  0  0
    9.9978   -0.9967   24.6567 C   0  0  0  0  0  0  0  0  0  0  0  0
    8.5372   -0.4786   24.5592 C   0  0  0  0  0  0  0  0  0  0  0  0
    7.5738   -1.6420   24.9723 C   0  0  0  0  0  0  0  0  0  0  0  0
    7.7391   -2.8680   24.1227 N   0  0  0  0  0  0  0  0  0  0  0  0
    6.7796   -3.9783   24.4286 C   0  0  0  0  0  0  0  0  0  0  0  0
    7.1878   -4.8401   25.6523 C   0  0  0  0  0  0  0  0  0  0  0  0
    8.6461   -5.3447   25.5155 C   0  0  0  0  0  0  0  0  0  0  0  0
    9.6235   -4.1788   25.2261 C   0  0  0  0  0  0  0  0  0  0  0  0
    9.1639   -3.3428   23.9871 C   0  0  0  0  0  0  0  0  0  0  0  0
    8.3314    0.1223   23.1193 C   0  0  0  0  0  0  0  0  0  0  0  0
    6.9186    0.7520   22.9159 C   0  0  0  0  0  0  0  0  0  0  0  0
    7.9019   -1.5680   22.0980 H   0  0  0  0  0  0  0  0  0  0  0  0
    7.4733   -2.5420   23.1935 H   0  0  0  0  0  0  0  0  0  0  0  0
  1  2  1  0  0  0
  1 17  1  0  0  0
  2  3  1  0  0  0
  3  4  1  0  0  0
  4  5  1  0  0  0
  4 16  1  0  0  0
  4 18  1  0  0  0
  5  6  1  0  0  0
  6  7  1  0  0  0
  6 15  1  0  0  0
  7  8  1  0  0  0
  8  9  1  0  0  0
  8 16  1  0  0  0
  9 10  1  0  0  0
 10 11  1  0  0  0
 10 15  1  0  0  0
 10 19  1  0  0  0
 11 12  1  0  0  0
 12 13  1  0  0  0
 13 14  1  0  0  0
 14 15  1  0  0  0
 16 17  1  0  0  0
M  CHG 1   4   1
M  CHG 1  10   1
M  END
> <minimizedAffinity>
-5.20629

$$$$
Row4


 14 16  0  0  0  0  0  0  0  0999 V2000
    5.9408   -0.0139   18.9254 C   0  0  0  0  0  0  0  0  0  0  0  0
    7.2573    0.4786   18.9580 C   0  0  0  0  0  0  0  0  0  0  0  0
    8.1291    0.0207   19.8925 N   0  0  0  0  0  0  0  0  0  0  0  0
    7.7987   -0.9132   20.8277 C   0  0  0  0  0  0  0  0  0  0  0  0
    6.4757   -1.4419   20.8343 C   0  0  0  0  0  0  0  0  0  0  0  0
    6.1122   -2.4101   21.7943 C   0  0  0  0  0  0  0  0  0  0  0  0
    7.0469   -2.8551   22.7427 C   0  0  0  0  0  0  0  0  0  0  0  0
    8.3602   -2.3394   22.7469 C   0  0  0  0  0  0  0  0  0  0  0  0
    9.3172   -2.7722   23.6914 C   0  0  0  0  0  0  0  0  0  0  0  0
   10.6190   -2.2424   23.6737 C   0  0  0  0  0  0  0  0  0  0  0  0
   10.9479   -1.2792   22.7037 C   0  0  0  0  0  0  0  0  0  0  0  0
   10.0134   -0.8766   21.8047 N   0  0  0  0  0  0  0  0  0  0  0  0
    8.7404   -1.3614   21.7832 C   0  0  0  0  0  0  0  0  0  0  0  0
    5.5525   -0.9792   19.8706 C   0  0  0  0  0  0  0  0  0  0  0  0
  1  2  2  0  0  0
  1 14  1  0  0  0
  2  3  1  0  0  0
  3  4  2  0  0  0
  4  5  1  0  0  0
  4 13  1  0  0  0
  5  6  1  0  0  0
  5 14  2  0  0  0
  6  7  2  0  0  0
  7  8  1  0  0  0
  8  9  2  0  0  0
  8 13  1  0  0  0
  9 10  1  0  0  0
 10 11  2  0  0  0
 11 12  1  0  0  0
 12 13  2  0  0  0
M  END
> <minimizedAffinity>
-5.23465

$$$$
Row4


 14 16  0  0  0  0  0  0  0  0999 V2000
   10.7891   -2.0142   23.6538 C   0  0  0  0  0  0  0  0  0  0  0  0
   11.0541   -1.0407   22.6745 C   0  0  0  0  0  0  0  0  0  0  0  0
   10.0840   -0.6828   21.7949 N   0  0  0  0  0  0  0  0  0  0  0  0
    8.8335   -1.2233   21.8019 C   0  0  0  0  0  0  0  0  0  0  0  0
    8.5177   -2.2140   22.7761 C   0  0  0  0  0  0  0  0  0  0  0  0
    7.2286   -2.7870   22.8011 C   0  0  0  0  0  0  0  0  0  0  0  0
    6.2556   -2.3864   21.8716 C   0  0  0  0  0  0  0  0  0  0  0  0
    6.5556   -1.4065   20.9018 C   0  0  0  0  0  0  0  0  0  0  0  0
    5.5927   -0.9881   19.9569 C   0  0  0  0  0  0  0  0  0  0  0  0
    5.9174   -0.0098   19.0012 C   0  0  0  0  0  0  0  0  0  0  0  0
    7.2112    0.5406   19.0041 C   0  0  0  0  0  0  0  0  0  0  0  0
    8.1221    0.1246   19.9210 N   0  0  0  0  0  0  0  0  0  0  0  0
    7.8534   -0.8198   20.8654 C   0  0  0  0  0  0  0  0  0  0  0  0
    9.5127   -2.6011   23.7009 C   0  0  0  0  0  0  0  0  0  0  0  0
  1  2  2  0  0  0
  1 14  1  0  0  0
  2  3  1  0  0  0
  3  4  2  0  0  0
  4  5  1  0  0  0
  4 13  1  0  0  0
  5  6  1  0  0  0
  5 14  2  0  0  0
  6  7  2  0  0  0
  7  8  1  0  0  0
  8  9  2  0  0  0
  8 13  1  0  0  0
  9 10  1  0  0  0
 10 11  2  0  0  0
 11 12  1  0  0  0
 12 13  2  0  0  0
M  END
> <minimizedAffinity>
-5.19475

$$$$
Row4


 14 16  0  0  0  0  0  0  0  0999 V2000
   12.2937    1.4697   23.2712 C   0  0  0  0  0  0  0  0  0  0  0  0
   11.4907    2.3960   22.5828 C   0  0  0  0  0  0  0  0  0  0  0  0
   10.3206    1.9945   22.0235 N   0  0  0  0  0  0  0  0  0  0  0  0
    9.8625    0.7132   22.0894 C   0  0  0  0  0  0  0  0  0  0  0  0
   10.6420   -0.2615   22.7767 C   0  0  0  0  0  0  0  0  0  0  0  0
   10.1863   -1.5944   22.8570 C   0  0  0  0  0  0  0  0  0  0  0  0
    8.9692   -1.9654   22.2634 C   0  0  0  0  0  0  0  0  0  0  0  0
    8.1880   -1.0098   21.5798 C   0  0  0  0  0  0  0  0  0  0  0  0
    6.9605   -1.3601   20.9751 C   0  0  0  0  0  0  0  0  0  0  0  0
    6.2013   -0.3886   20.3000 C   0  0  0  0  0  0  0  0  0  0  0  0
    6.6846    0.9303   20.2388 C   0  0  0  0  0  0  0  0  0  0  0  0
    7.8669    1.2464   20.8268 N   0  0  0  0  0  0  0  0  0  0  0  0
    8.6365    0.3396   21.4913 C   0  0  0  0  0  0  0  0  0  0  0  0
   11.8629    0.1350   23.3661 C   0  0  0  0  0  0  0  0  0  0  0  0
  1  2  2  0  0  0
  1 14  1  0  0  0
  2  3  1  0  0  0
  3  4  2  0  0  0
  4  5  1  0  0  0
  4 13  1  0  0  0
  5  6  1  0  0  0
  5 14  2  0  0  0
  6  7  2  0  0  0
  7  8  1  0  0  0
  8  9  2  0  0  0
  8 13  1  0  0  0
  9 10  1  0  0  0
 10 11  2  0  0  0
 11 12  1  0  0  0
 12 13  2  0  0  0
M  END
> <minimizedAffinity>
-5.10386

$$$$
Row4


 14 16  0  0  0  0  0  0  0  0999 V2000
    8.2712    3.9195   23.5796 C   0  0  0  0  0  0  0  0  0  0  0  0
    7.0440    4.2686   22.9889 C   0  0  0  0  0  0  0  0  0  0  0  0
    6.5248    3.4979   21.9992 N   0  0  0  0  0  0  0  0  0  0  0  0
    7.1361    2.3750   21.5289 C   0  0  0  0  0  0  0  0  0  0  0  0
    8.3821    1.9809   22.0967 C   0  0  0  0  0  0  0  0  0  0  0  0
    9.0324    0.8211   21.6245 C   0  0  0  0  0  0  0  0  0  0  0  0
    8.4585    0.0535   20.5985 C   0  0  0  0  0  0  0  0  0  0  0  0
    7.2252    0.4330   20.0278 C   0  0  0  0  0  0  0  0  0  0  0  0
    6.6292   -0.3237   18.9947 C   0  0  0  0  0  0  0  0  0  0  0  0
    5.3996    0.0762   18.4433 C   0  0  0  0  0  0  0  0  0  0  0  0
    4.7785    1.2370   18.9371 C   0  0  0  0  0  0  0  0  0  0  0  0
    5.3681    1.9503   19.9306 N   0  0  0  0  0  0  0  0  0  0  0  0
    6.5579    1.6018   20.4952 C   0  0  0  0  0  0  0  0  0  0  0  0
    8.9401    2.7687   23.1278 C   0  0  0  0  0  0  0  0  0  0  0  0
  1  2  2  0  0  0
  1 14  1  0  0  0
  2  3  1  0  0  0
  3  4  2  0  0  0
  4  5  1  0  0  0
  4 13  1  0  0  0
  5  6  1  0  0  0
  5 14  2  0  0  0
  6  7  2  0  0  0
  7  8  1  0  0  0
  8  9  2  0  0  0
  8 13  1  0  0  0
  9 10  1  0  0  0
 10 11  2  0  0  0
 11 12  1  0  0  0
 12 13  2  0  0  0
M  END
> <minimizedAffinity>
-5.07525

$$$$
Row4


 14 16  0  0  0  0  0  0  0  0999 V2000
   10.6132   -1.2960   22.0766 C   0  0  0  0  0  0  0  0  0  0  0  0
   11.2845   -1.8322   23.1895 C   0  0  0  0  0  0  0  0  0  0  0  0
   10.6277   -2.6582   24.0436 N   0  0  0  0  0  0  0  0  0  0  0  0
    9.3213   -3.0103   23.8853 C   0  0  0  0  0  0  0  0  0  0  0  0
    8.5992   -2.4917   22.7718 C   0  0  0  0  0  0  0  0  0  0  0  0
    7.2450   -2.8434   22.5888 C   0  0  0  0  0  0  0  0  0  0  0  0
    6.6055   -3.7014   23.4977 C   0  0  0  0  0  0  0  0  0  0  0  0
    7.3093   -4.2216   24.6044 C   0  0  0  0  0  0  0  0  0  0  0  0
    6.6865   -5.0864   25.5315 C   0  0  0  0  0  0  0  0  0  0  0  0
    7.4104   -5.5909   26.6256 C   0  0  0  0  0  0  0  0  0  0  0  0
    8.7581   -5.2203   26.7782 C   0  0  0  0  0  0  0  0  0  0  0  0
    9.3381   -4.3880   25.8759 N   0  0  0  0  0  0  0  0  0  0  0  0
    8.6770   -3.8746   24.8010 C   0  0  0  0  0  0  0  0  0  0  0  0
    9.2635   -1.6304   21.8708 C   0  0  0  0  0  0  0  0  0  0  0  0
  1  2  2  0  0  0
  1 14  1  0  0  0
  2  3  1  0  0  0
  3  4  2  0  0  0
  4  5  1  0  0  0
  4 13  1  0  0  0
  5  6  1  0  0  0
  5 14  2  0  0  0
  6  7  2  0  0  0
  7  8  1  0  0  0
  8  9  2  0  0  0
  8 13  1  0  0  0
  9 10  1  0  0  0
 10 11  2  0  0  0
 11 12  1  0  0  0
 12 13  2  0  0  0
M  END
> <minimizedAffinity>
-5.02949

$$$$
Row4


 14 16  0  0  0  0  0  0  0  0999 V2000
    7.2838   -5.5864   26.6645 C   0  0  0  0  0  0  0  0  0  0  0  0
    8.6026   -5.1504   26.8824 C   0  0  0  0  0  0  0  0  0  0  0  0
    9.2031   -4.3316   25.9813 N   0  0  0  0  0  0  0  0  0  0  0  0
    8.5903   -3.8932   24.8463 C   0  0  0  0  0  0  0  0  0  0  0  0
    7.2531   -4.3085   24.5823 C   0  0  0  0  0  0  0  0  0  0  0  0
    6.5995   -3.8663   23.4127 C   0  0  0  0  0  0  0  0  0  0  0  0
    7.2593   -3.0195   22.5078 C   0  0  0  0  0  0  0  0  0  0  0  0
    8.5834   -2.6011   22.7576 C   0  0  0  0  0  0  0  0  0  0  0  0
    9.2669   -1.7495   21.8615 C   0  0  0  0  0  0  0  0  0  0  0  0
   10.5859   -1.3473   22.1341 C   0  0  0  0  0  0  0  0  0  0  0  0
   11.2077   -1.8064   23.3086 C   0  0  0  0  0  0  0  0  0  0  0  0
   10.5333   -2.6243   24.1569 N   0  0  0  0  0  0  0  0  0  0  0  0
    9.2551   -3.0402   23.9348 C   0  0  0  0  0  0  0  0  0  0  0  0
    6.6095   -5.1605   25.5069 C   0  0  0  0  0  0  0  0  0  0  0  0
  1  2  2  0  0  0
  1 14  1  0  0  0
  2  3  1  0  0  0
  3  4  2  0  0  0
  4  5  1  0  0  0
  4 13  1  0  0  0
  5  6  1  0  0  0
  5 14  2  0  0  0
  6  7  2  0  0  0
  7  8  1  0  0  0
  8  9  2  0  0  0
  8 13  1  0  0  0
  9 10  1  0  0  0
 10 11  2  0  0  0
 11 12  1  0  0  0
 12 13  2  0  0  0
M  END
> <minimizedAffinity>
-5.01038

$$$$
Row4


 14 16  0  0  0  0  0  0  0  0999 V2000
    8.0848    0.0714   20.6343 C   0  0  0  0  0  0  0  0  0  0  0  0
    6.9653   -0.7280   20.9254 C   0  0  0  0  0  0  0  0  0  0  0  0
    7.0622   -1.7196   21.8476 N   0  0  0  0  0  0  0  0  0  0  0  0
    8.2093   -1.9966   22.5283 C   0  0  0  0  0  0  0  0  0  0  0  0
    9.3704   -1.2132   22.2671 C   0  0  0  0  0  0  0  0  0  0  0  0
   10.5691   -1.4831   22.9609 C   0  0  0  0  0  0  0  0  0  0  0  0
   10.6238   -2.5192   23.9069 C   0  0  0  0  0  0  0  0  0  0  0  0
    9.4811   -3.3023   24.1746 C   0  0  0  0  0  0  0  0  0  0  0  0
    9.5128   -4.3495   25.1219 C   0  0  0  0  0  0  0  0  0  0  0  0
    8.3600   -5.1147   25.3700 C   0  0  0  0  0  0  0  0  0  0  0  0
    7.1823   -4.8192   24.6612 C   0  0  0  0  0  0  0  0  0  0  0  0
    7.1728   -3.8083   23.7548 N   0  0  0  0  0  0  0  0  0  0  0  0
    8.2643   -3.0404   23.4812 C   0  0  0  0  0  0  0  0  0  0  0  0
    9.2915   -0.1763   21.3113 C   0  0  0  0  0  0  0  0  0  0  0  0
  1  2  2  0  0  0
  1 14  1  0  0  0
  2  3  1  0  0  0
  3  4  2  0  0  0
  4  5  1  0  0  0
  4 13  1  0  0  0
  5  6  1  0  0  0
  5 14  2  0  0  0
  6  7  2  0  0  0
  7  8  1  0  0  0
  8  9  2  0  0  0
  8 13  1  0  0  0
  9 10  1  0  0  0
 10 11  2  0  0  0
 11 12  1  0  0  0
 12 13  2  0  0  0
M  END
> <minimizedAffinity>
-4.99821

$$$$
Row4


 14 16  0  0  0  0  0  0  0  0999 V2000
    8.2064   -5.1314   25.3987 C   0  0  0  0  0  0  0  0  0  0  0  0
    7.0284   -4.8398   24.6886 C   0  0  0  0  0  0  0  0  0  0  0  0
    7.0233   -3.8462   23.7634 N   0  0  0  0  0  0  0  0  0  0  0  0
    8.1198   -3.0923   23.4715 C   0  0  0  0  0  0  0  0  0  0  0  0
    9.3370   -3.3509   24.1655 C   0  0  0  0  0  0  0  0  0  0  0  0
   10.4847   -2.5819   23.8786 C   0  0  0  0  0  0  0  0  0  0  0  0
   10.4338   -1.5636   22.9133 C   0  0  0  0  0  0  0  0  0  0  0  0
    9.2346   -1.2975   22.2192 C   0  0  0  0  0  0  0  0  0  0  0  0
    9.1600   -0.2782   21.2442 C   0  0  0  0  0  0  0  0  0  0  0  0
    7.9529   -0.0336   20.5669 C   0  0  0  0  0  0  0  0  0  0  0  0
    6.8282   -0.8183   20.8770 C   0  0  0  0  0  0  0  0  0  0  0  0
    6.9209   -1.7932   21.8174 N   0  0  0  0  0  0  0  0  0  0  0  0
    8.0684   -2.0665   22.4991 C   0  0  0  0  0  0  0  0  0  0  0  0
    9.3643   -4.3803   25.1322 C   0  0  0  0  0  0  0  0  0  0  0  0
  1  2  2  0  0  0
  1 14  1  0  0  0
  2  3  1  0  0  0
  3  4  2  0  0  0
  4  5  1  0  0  0
  4 13  1  0  0  0
  5  6  1  0  0  0
  5 14  2  0  0  0
  6  7  2  0  0  0
  7  8  1  0  0  0
  8  9  2  0  0  0
  8 13  1  0  0  0
  9 10  1  0  0  0
 10 11  2  0  0  0
 11 12  1  0  0  0
 12 13  2  0  0  0
M  END
> <minimizedAffinity>
-4.99084

$$$$
Row4


 14 16  0  0  0  0  0  0  0  0999 V2000
    7.1104    0.4384   19.5348 C   0  0  0  0  0  0  0  0  0  0  0  0
    5.9154   -0.3012   19.4936 C   0  0  0  0  0  0  0  0  0  0  0  0
    5.7474   -1.3640   20.3214 N   0  0  0  0  0  0  0  0  0  0  0  0
    6.6915   -1.7705   21.2155 C   0  0  0  0  0  0  0  0  0  0  0  0
    7.9193   -1.0519   21.2938 C   0  0  0  0  0  0  0  0  0  0  0  0
    8.9108   -1.4559   22.2128 C   0  0  0  0  0  0  0  0  0  0  0  0
    8.6942   -2.5617   23.0503 C   0  0  0  0  0  0  0  0  0  0  0  0
    7.4827   -3.2818   22.9825 C   0  0  0  0  0  0  0  0  0  0  0  0
    7.2428   -4.3974   23.8151 C   0  0  0  0  0  0  0  0  0  0  0  0
    6.0270   -5.0974   23.7276 C   0  0  0  0  0  0  0  0  0  0  0  0
    5.0606   -4.6683   22.8010 C   0  0  0  0  0  0  0  0  0  0  0  0
    5.3108   -3.5935   22.0099 N   0  0  0  0  0  0  0  0  0  0  0  0
    6.4731   -2.8846   22.0591 C   0  0  0  0  0  0  0  0  0  0  0  0
    8.1148    0.0572   20.4414 C   0  0  0  0  0  0  0  0  0  0  0  0
  1  2  2  0  0  0
  1 14  1  0  0  0
  2  3  1  0  0  0
  3  4  2  0  0  0
  4  5  1  0  0  0
  4 13  1  0  0  0
  5  6  1  0  0  0
  5 14  2  0  0  0
  6  7  2  0  0  0
  7  8  1  0  0  0
  8  9  2  0  0  0
  8 13  1  0  0  0
  9 10  1  0  0  0
 10 11  2  0  0  0
 11 12  1  0  0  0
 12 13  2  0  0  0
M  END
> <minimizedAffinity>
-4.94524

$$$$
Row5


 27 32  0  0  0  0  0  0  0  0999 V2000
    6.1687   -4.0264   27.8444 C   0  0  0  0  0  0  0  0  0  0  0  0
    7.0210   -4.2888   26.5545 C   0  0  0  0  0  0  0  0  0  0  0  0
    8.2381   -5.1864   26.9953 C   0  0  0  0  0  0  0  0  0  0  0  0
    9.3042   -5.4641   25.9025 C   0  0  0  0  0  0  0  0  0  0  0  0
    9.6114   -4.2472   24.9815 C   0  0  0  0  0  0  0  0  0  0  0  0
    8.4175   -3.2720   24.6035 C   0  0  0  0  0  0  0  0  0  0  0  0
    7.3998   -3.9835   23.6286 C   0  0  0  0  0  0  0  0  0  0  0  0
    7.9332   -4.4985   22.4034 O   0  0  0  0  0  0  0  0  0  0  0  0
    6.9280   -5.3893   21.8897 C   0  0  0  0  0  0  0  0  0  0  0  0
    6.0272   -5.7796   23.0796 C   0  0  0  0  0  0  0  0  0  0  0  0
    6.7887   -5.2006   24.1973 N   0  0  0  0  0  0  0  0  0  0  0  0
    6.1050   -5.0200   25.5043 C   0  0  0  0  0  0  0  0  0  0  0  0
    9.0347   -1.9107   24.0236 C   0  0  0  0  0  0  0  0  0  0  0  0
    9.9199   -2.0588   22.7290 C   0  0  0  0  0  0  0  0  0  0  0  0
   10.4608   -0.6970   22.1902 C   0  0  0  0  0  0  0  0  0  0  0  0
    9.3947    0.4430   22.2538 C   0  0  0  0  0  0  0  0  0  0  0  0
    8.9201    0.6261   23.7072 C   0  0  0  0  0  0  0  0  0  0  0  0
    8.0523   -0.6590   23.9074 C   0  0  0  0  0  0  0  0  0  0  0  0
    7.2325   -0.4974   25.2326 C   0  0  0  0  0  0  0  0  0  0  0  0
    6.5726   -1.7969   25.7458 C   0  0  0  0  0  0  0  0  0  0  0  0
    7.6144   -2.9551   25.9344 C   0  0  0  0  0  0  0  0  0  0  0  0
    7.2430   -0.5857   22.5541 C   0  0  0  0  0  0  0  0  0  0  0  0
    6.0392    0.1764   22.6435 O   0  0  0  0  0  0  0  0  0  0  0  0
    8.1487    0.0592   21.6179 C   0  0  0  0  0  0  0  0  0  0  0  0
    7.8797    0.2500   20.3174 C   0  0  0  0  0  0  0  0  0  0  0  0
    7.4790   -5.8775   24.5226 H   0  0  0  0  0  0  0  0  0  0  0  0
    6.2510    1.0859   22.9059 H   0  0  0  0  0  0  0  0  0  0  0  0
  2  1  1  0  0  0
  2  3  1  0  0  0
  2 12  1  0  0  0
  2 21  1  0  0  0
  3  4  1  0  0  0
  4  5  1  0  0  0
  6  5  1  0  0  0
  6  7  1  0  0  0
  6 13  1  0  0  0
  6 21  1  0  0  0
  7  8  1  0  0  0
  7 11  1  0  0  0
  8  9  1  0  0  0
  9 10  1  0  0  0
 10 11  1  0  0  0
 11 12  1  0  0  0
 11 26  1  0  0  0
 13 14  1  0  0  0
 13 18  1  0  0  0
 14 15  1  0  0  0
 15 16  1  0  0  0
 16 17  1  0  0  0
 16 24  1  0  0  0
 18 17  1  0  0  0
 18 19  1  0  0  0
 18 22  1  0  0  0
 19 20  1  0  0  0
 20 21  1  0  0  0
 22 23  1  0  0  0
 22 24  1  0  0  0
 23 27  1  0  0  0
 24 25  2  0  0  0
M  CHG 1  11   1
M  END
> <minimizedAffinity>
-7.74155

$$$$
Row5


 27 32  0  0  0  0  0  0  0  0999 V2000
    7.0420    2.7424   23.6507 C   0  0  0  0  0  0  0  0  0  0  0  0
    7.7074    1.5157   22.9355 C   0  0  0  0  0  0  0  0  0  0  0  0
    7.3053    1.6099   21.4154 C   0  0  0  0  0  0  0  0  0  0  0  0
    7.7396    0.4149   20.5259 C   0  0  0  0  0  0  0  0  0  0  0  0
    7.6126   -0.9762   21.2130 C   0  0  0  0  0  0  0  0  0  0  0  0
    7.9182   -1.0761   22.7673 C   0  0  0  0  0  0  0  0  0  0  0  0
    9.4585   -0.8755   23.0497 C   0  0  0  0  0  0  0  0  0  0  0  0
   10.3582   -1.7665   22.3807 O   0  0  0  0  0  0  0  0  0  0  0  0
   11.6583   -1.1642   22.5019 C   0  0  0  0  0  0  0  0  0  0  0  0
   11.4311    0.3321   22.8004 C   0  0  0  0  0  0  0  0  0  0  0  0
    9.9771    0.4308   22.5991 N   0  0  0  0  0  0  0  0  0  0  0  0
    9.2649    1.6193   23.1361 C   0  0  0  0  0  0  0  0  0  0  0  0
    7.3288   -2.4627   23.3153 C   0  0  0  0  0  0  0  0  0  0  0  0
    7.9221   -3.7650   22.6569 C   0  0  0  0  0  0  0  0  0  0  0  0
    7.3381   -5.0827   23.2571 C   0  0  0  0  0  0  0  0  0  0  0  0
    7.1829   -5.0211   24.8103 C   0  0  0  0  0  0  0  0  0  0  0  0
    6.2685   -3.8423   25.1917 C   0  0  0  0  0  0  0  0  0  0  0  0
    7.2042   -2.6248   24.8975 C   0  0  0  0  0  0  0  0  0  0  0  0
    6.5518   -1.3421   25.5169 C   0  0  0  0  0  0  0  0  0  0  0  0
    7.1760   -0.0092   25.0466 C   0  0  0  0  0  0  0  0  0  0  0  0
    7.1721    0.1270   23.4833 C   0  0  0  0  0  0  0  0  0  0  0  0
    8.5041   -3.1761   25.6032 C   0  0  0  0  0  0  0  0  0  0  0  0
    8.5934   -2.8418   26.9882 O   0  0  0  0  0  0  0  0  0  0  0  0
    8.4138   -4.6202   25.4648 C   0  0  0  0  0  0  0  0  0  0  0  0
    9.3647   -5.4777   25.8654 C   0  0  0  0  0  0  0  0  0  0  0  0
    9.7839    0.6174   21.6151 H   0  0  0  0  0  0  0  0  0  0  0  0
    7.8285   -3.2080   27.4592 H   0  0  0  0  0  0  0  0  0  0  0  0
  2  1  1  0  0  0
  2  3  1  0  0  0
  2 12  1  0  0  0
  2 21  1  0  0  0
  3  4  1  0  0  0
  4  5  1  0  0  0
  6  5  1  0  0  0
  6  7  1  0  0  0
  6 13  1  0  0  0
  6 21  1  0  0  0
  7  8  1  0  0  0
  7 11  1  0  0  0
  8  9  1  0  0  0
  9 10  1  0  0  0
 10 11  1  0  0  0
 11 12  1  0  0  0
 11 26  1  0  0  0
 13 14  1  0  0  0
 13 18  1  0  0  0
 14 15  1  0  0  0
 15 16  1  0  0  0
 16 17  1  0  0  0
 16 24  1  0  0  0
 18 17  1  0  0  0
 18 19  1  0  0  0
 18 22  1  0  0  0
 19 20  1  0  0  0
 20 21  1  0  0  0
 22 23  1  0  0  0
 22 24  1  0  0  0
 23 27  1  0  0  0
 24 25  2  0  0  0
M  CHG 1  11   1
M  END
> <minimizedAffinity>
-7.18362

$$$$
Row5


 27 32  0  0  0  0  0  0  0  0999 V2000
   11.1472    0.5808   22.9885 C   0  0  0  0  0  0  0  0  0  0  0  0
    9.5942    0.4647   22.8051 C   0  0  0  0  0  0  0  0  0  0  0  0
    8.9646    1.7343   23.4929 C   0  0  0  0  0  0  0  0  0  0  0  0
    7.4147    1.7690   23.5585 C   0  0  0  0  0  0  0  0  0  0  0  0
    6.7540    0.3921   23.8606 C   0  0  0  0  0  0  0  0  0  0  0  0
    7.4287   -0.9122   23.2582 C   0  0  0  0  0  0  0  0  0  0  0  0
    7.2463   -0.9647   21.6908 C   0  0  0  0  0  0  0  0  0  0  0  0
    5.9035   -0.9124   21.1958 O   0  0  0  0  0  0  0  0  0  0  0  0
    6.0206   -0.6079   19.7953 C   0  0  0  0  0  0  0  0  0  0  0  0
    7.4145    0.0201   19.5901 C   0  0  0  0  0  0  0  0  0  0  0  0
    7.8454    0.1858   20.9869 N   0  0  0  0  0  0  0  0  0  0  0  0
    9.2864    0.4220   21.2624 C   0  0  0  0  0  0  0  0  0  0  0  0
    6.8432   -2.1913   24.0272 C   0  0  0  0  0  0  0  0  0  0  0  0
    5.2858   -2.4006   23.9178 C   0  0  0  0  0  0  0  0  0  0  0  0
    4.7804   -3.6813   24.6539 C   0  0  0  0  0  0  0  0  0  0  0  0
    5.7267   -4.9073   24.4497 C   0  0  0  0  0  0  0  0  0  0  0  0
    7.1398   -4.5586   24.9525 C   0  0  0  0  0  0  0  0  0  0  0  0
    7.6225   -3.5709   23.8408 C   0  0  0  0  0  0  0  0  0  0  0  0
    9.1624   -3.3439   24.0193 C   0  0  0  0  0  0  0  0  0  0  0  0
    9.7376   -2.1578   23.2134 C   0  0  0  0  0  0  0  0  0  0  0  0
    8.9897   -0.8135   23.5234 C   0  0  0  0  0  0  0  0  0  0  0  0
    7.1662   -4.4161   22.5882 C   0  0  0  0  0  0  0  0  0  0  0  0
    8.1535   -5.3369   22.1240 O   0  0  0  0  0  0  0  0  0  0  0  0
    6.0016   -5.1550   23.0471 C   0  0  0  0  0  0  0  0  0  0  0  0
    5.2530   -5.9462   22.2637 C   0  0  0  0  0  0  0  0  0  0  0  0
    7.5137    1.0840   21.3388 H   0  0  0  0  0  0  0  0  0  0  0  0
    8.3718   -5.9616   22.8333 H   0  0  0  0  0  0  0  0  0  0  0  0
  2  1  1  0  0  0
  2  3  1  0  0  0
  2 12  1  0  0  0
  2 21  1  0  0  0
  3  4  1  0  0  0
  4  5  1  0  0  0
  6  5  1  0  0  0
  6  7  1  0  0  0
  6 13  1  0  0  0
  6 21  1  0  0  0
  7  8  1  0  0  0
  7 11  1  0  0  0
  8  9  1  0  0  0
  9 10  1  0  0  0
 10 11  1  0  0  0
 11 12  1  0  0  0
 11 26  1  0  0  0
 13 14  1  0  0  0
 13 18  1  0  0  0
 14 15  1  0  0  0
 15 16  1  0  0  0
 16 17  1  0  0  0
 16 24  1  0  0  0
 18 17  1  0  0  0
 18 19  1  0  0  0
 18 22  1  0  0  0
 19 20  1  0  0  0
 20 21  1  0  0  0
 22 23  1  0  0  0
 22 24  1  0  0  0
 23 27  1  0  0  0
 24 25  2  0  0  0
M  CHG 1  11   1
M  END
> <minimizedAffinity>
-7.00057

$$$$
Row5


 27 32  0  0  0  0  0  0  0  0999 V2000
    8.1735   -5.5550   26.6956 C   0  0  0  0  0  0  0  0  0  0  0  0
    7.1900   -4.5743   25.9676 C   0  0  0  0  0  0  0  0  0  0  0  0
    6.0302   -5.4598   25.3743 C   0  0  0  0  0  0  0  0  0  0  0  0
    4.9997   -4.7161   24.4839 C   0  0  0  0  0  0  0  0  0  0  0  0
    5.6192   -3.6336   23.5523 C   0  0  0  0  0  0  0  0  0  0  0  0
    6.8536   -2.7953   24.0935 C   0  0  0  0  0  0  0  0  0  0  0  0
    6.4016   -1.8089   25.2404 C   0  0  0  0  0  0  0  0  0  0  0  0
    5.3629   -0.8774   24.9176 O   0  0  0  0  0  0  0  0  0  0  0  0
    4.8926   -0.3723   26.1791 C   0  0  0  0  0  0  0  0  0  0  0  0
    5.3140   -1.3947   27.2546 C   0  0  0  0  0  0  0  0  0  0  0  0
    5.8086   -2.4910   26.4072 N   0  0  0  0  0  0  0  0  0  0  0  0
    6.6543   -3.5430   27.0287 C   0  0  0  0  0  0  0  0  0  0  0  0
    7.5628   -2.0714   22.8512 C   0  0  0  0  0  0  0  0  0  0  0  0
    6.6603   -1.0676   22.0391 C   0  0  0  0  0  0  0  0  0  0  0  0
    7.4157   -0.3661   20.8666 C   0  0  0  0  0  0  0  0  0  0  0  0
    8.8670    0.0622   21.2548 C   0  0  0  0  0  0  0  0  0  0  0  0
    9.6674   -1.1737   21.7052 C   0  0  0  0  0  0  0  0  0  0  0  0
    9.0179   -1.4653   23.0972 C   0  0  0  0  0  0  0  0  0  0  0  0
    9.9124   -2.5094   23.8484 C   0  0  0  0  0  0  0  0  0  0  0  0
    9.2541   -3.1467   25.0925 C   0  0  0  0  0  0  0  0  0  0  0  0
    7.8741   -3.8134   24.7559 C   0  0  0  0  0  0  0  0  0  0  0  0
    9.0260    0.0122   23.6528 C   0  0  0  0  0  0  0  0  0  0  0  0
   10.2249    0.3607   24.3450 O   0  0  0  0  0  0  0  0  0  0  0  0
    8.8946    0.8502   22.4724 C   0  0  0  0  0  0  0  0  0  0  0  0
    8.7821    2.1867   22.5045 C   0  0  0  0  0  0  0  0  0  0  0  0
    5.0313   -3.1025   26.1577 H   0  0  0  0  0  0  0  0  0  0  0  0
   10.9822    0.2707   23.7455 H   0  0  0  0  0  0  0  0  0  0  0  0
  2  1  1  0  0  0
  2  3  1  0  0  0
  2 12  1  0  0  0
  2 21  1  0  0  0
  3  4  1  0  0  0
  4  5  1  0  0  0
  6  5  1  0  0  0
  6  7  1  0  0  0
  6 13  1  0  0  0
  6 21  1  0  0  0
  7  8  1  0  0  0
  7 11  1  0  0  0
  8  9  1  0  0  0
  9 10  1  0  0  0
 10 11  1  0  0  0
 11 12  1  0  0  0
 11 26  1  0  0  0
 13 14  1  0  0  0
 13 18  1  0  0  0
 14 15  1  0  0  0
 15 16  1  0  0  0
 16 17  1  0  0  0
 16 24  1  0  0  0
 18 17  1  0  0  0
 18 19  1  0  0  0
 18 22  1  0  0  0
 19 20  1  0  0  0
 20 21  1  0  0  0
 22 23  1  0  0  0
 22 24  1  0  0  0
 23 27  1  0  0  0
 24 25  2  0  0  0
M  CHG 1  11   1
M  END
> <minimizedAffinity>
-6.97805

$$$$
Row5


 27 32  0  0  0  0  0  0  0  0999 V2000
    9.3311   -0.2543   28.2485 C   0  0  0  0  0  0  0  0  0  0  0  0
    8.7749   -0.1672   26.7849 C   0  0  0  0  0  0  0  0  0  0  0  0
    7.8643    1.1168   26.7262 C   0  0  0  0  0  0  0  0  0  0  0  0
    7.0878    1.3349   25.4006 C   0  0  0  0  0  0  0  0  0  0  0  0
    6.5244    0.0305   24.7646 C   0  0  0  0  0  0  0  0  0  0  0  0
    7.3806   -1.2994   24.8970 C   0  0  0  0  0  0  0  0  0  0  0  0
    8.6854   -1.2164   24.0120 C   0  0  0  0  0  0  0  0  0  0  0  0
    8.5016   -0.9656   22.6141 O   0  0  0  0  0  0  0  0  0  0  0  0
    9.7947   -0.5776   22.1189 C   0  0  0  0  0  0  0  0  0  0  0  0
   10.6176   -0.1107   23.3372 C   0  0  0  0  0  0  0  0  0  0  0  0
    9.5781   -0.0996   24.3782 N   0  0  0  0  0  0  0  0  0  0  0  0
    9.9999   -0.0610   25.8026 C   0  0  0  0  0  0  0  0  0  0  0  0
    6.4375   -2.5498   24.5544 C   0  0  0  0  0  0  0  0  0  0  0  0
    5.8145   -2.5596   23.1076 C   0  0  0  0  0  0  0  0  0  0  0  0
    4.9376   -3.8190   22.8202 C   0  0  0  0  0  0  0  0  0  0  0  0
    5.5662   -5.1331   23.3843 C   0  0  0  0  0  0  0  0  0  0  0  0
    5.7726   -4.9961   24.9041 C   0  0  0  0  0  0  0  0  0  0  0  0
    6.9740   -3.9969   24.9584 C   0  0  0  0  0  0  0  0  0  0  0  0
    7.5275   -3.9724   26.4239 C   0  0  0  0  0  0  0  0  0  0  0  0
    8.4993   -2.8101   26.7274 C   0  0  0  0  0  0  0  0  0  0  0  0
    7.8680   -1.4108   26.4026 C   0  0  0  0  0  0  0  0  0  0  0  0
    7.8790   -4.6880   23.8652 C   0  0  0  0  0  0  0  0  0  0  0  0
    8.7546   -5.6862   24.3895 O   0  0  0  0  0  0  0  0  0  0  0  0
    6.9384   -5.3108   22.9486 C   0  0  0  0  0  0  0  0  0  0  0  0
    7.2917   -5.9466   21.8213 C   0  0  0  0  0  0  0  0  0  0  0  0
    9.1059    0.8045   24.3748 H   0  0  0  0  0  0  0  0  0  0  0  0
    8.2320   -6.3823   24.8176 H   0  0  0  0  0  0  0  0  0  0  0  0
  2  1  1  0  0  0
  2  3  1  0  0  0
  2 12  1  0  0  0
  2 21  1  0  0  0
  3  4  1  0  0  0
  4  5  1  0  0  0
  6  5  1  0  0  0
  6  7  1  0  0  0
  6 13  1  0  0  0
  6 21  1  0  0  0
  7  8  1  0  0  0
  7 11  1  0  0  0
  8  9  1  0  0  0
  9 10  1  0  0  0
 10 11  1  0  0  0
 11 12  1  0  0  0
 11 26  1  0  0  0
 13 14  1  0  0  0
 13 18  1  0  0  0
 14 15  1  0  0  0
 15 16  1  0  0  0
 16 17  1  0  0  0
 16 24  1  0  0  0
 18 17  1  0  0  0
 18 19  1  0  0  0
 18 22  1  0  0  0
 19 20  1  0  0  0
 20 21  1  0  0  0
 22 23  1  0  0  0
 22 24  1  0  0  0
 23 27  1  0  0  0
 24 25  2  0  0  0
M  CHG 1  11   1
M  END
> <minimizedAffinity>
-6.81960

$$$$
Row5


 27 32  0  0  0  0  0  0  0  0999 V2000
    6.5355    0.9085   20.3306 C   0  0  0  0  0  0  0  0  0  0  0  0
    7.3993    0.6796   21.6192 C   0  0  0  0  0  0  0  0  0  0  0  0
    8.8150    1.3060   21.3279 C   0  0  0  0  0  0  0  0  0  0  0  0
    9.8934    1.0765   22.4198 C   0  0  0  0  0  0  0  0  0  0  0  0
    9.8585   -0.3379   23.0692 C   0  0  0  0  0  0  0  0  0  0  0  0
    8.4467   -1.0309   23.2827 C   0  0  0  0  0  0  0  0  0  0  0  0
    7.6255   -0.2939   24.4118 C   0  0  0  0  0  0  0  0  0  0  0  0
    8.2474   -0.1894   25.6976 O   0  0  0  0  0  0  0  0  0  0  0  0
    7.4939    0.8067   26.4103 C   0  0  0  0  0  0  0  0  0  0  0  0
    6.7487    1.6451   25.3514 C   0  0  0  0  0  0  0  0  0  0  0  0
    7.3593    1.1276   24.1170 N   0  0  0  0  0  0  0  0  0  0  0  0
    6.6798    1.3941   22.8227 C   0  0  0  0  0  0  0  0  0  0  0  0
    8.6814   -2.5925   23.5595 C   0  0  0  0  0  0  0  0  0  0  0  0
    9.5476   -2.9389   24.8288 C   0  0  0  0  0  0  0  0  0  0  0  0
    9.7094   -4.4733   25.0676 C   0  0  0  0  0  0  0  0  0  0  0  0
    8.3880   -5.2661   24.8116 C   0  0  0  0  0  0  0  0  0  0  0  0
    7.9129   -5.0258   23.3667 C   0  0  0  0  0  0  0  0  0  0  0  0
    7.4085   -3.5486   23.4547 C   0  0  0  0  0  0  0  0  0  0  0  0
    6.6027   -3.2255   22.1505 C   0  0  0  0  0  0  0  0  0  0  0  0
    6.3094   -1.7248   21.9282 C   0  0  0  0  0  0  0  0  0  0  0  0
    7.6173   -0.8579   21.9415 C   0  0  0  0  0  0  0  0  0  0  0  0
    6.5793   -3.6829   24.7911 C   0  0  0  0  0  0  0  0  0  0  0  0
    5.2223   -4.0780   24.5897 O   0  0  0  0  0  0  0  0  0  0  0  0
    7.2692   -4.7124   25.5506 C   0  0  0  0  0  0  0  0  0  0  0  0
    6.9330   -5.0854   26.7947 C   0  0  0  0  0  0  0  0  0  0  0  0
    8.2069    1.6566   23.9116 H   0  0  0  0  0  0  0  0  0  0  0  0
    5.1990   -4.9395   24.1445 H   0  0  0  0  0  0  0  0  0  0  0  0
  2  1  1  0  0  0
  2  3  1  0  0  0
  2 12  1  0  0  0
  2 21  1  0  0  0
  3  4  1  0  0  0
  4  5  1  0  0  0
  6  5  1  0  0  0
  6  7  1  0  0  0
  6 13  1  0  0  0
  6 21  1  0  0  0
  7  8  1  0  0  0
  7 11  1  0  0  0
  8  9  1  0  0  0
  9 10  1  0  0  0
 10 11  1  0  0  0
 11 12  1  0  0  0
 11 26  1  0  0  0
 13 14  1  0  0  0
 13 18  1  0  0  0
 14 15  1  0  0  0
 15 16  1  0  0  0
 16 17  1  0  0  0
 16 24  1  0  0  0
 18 17  1  0  0  0
 18 19  1  0  0  0
 18 22  1  0  0  0
 19 20  1  0  0  0
 20 21  1  0  0  0
 22 23  1  0  0  0
 22 24  1  0  0  0
 23 27  1  0  0  0
 24 25  2  0  0  0
M  CHG 1  11   1
M  END
> <minimizedAffinity>
-6.77554

$$$$
Row5


 27 32  0  0  0  0  0  0  0  0999 V2000
    9.1639   -5.5248   25.2415 C   0  0  0  0  0  0  0  0  0  0  0  0
    8.0485   -4.4341   25.0826 C   0  0  0  0  0  0  0  0  0  0  0  0
    6.7302   -5.1956   24.6782 C   0  0  0  0  0  0  0  0  0  0  0  0
    5.5121   -4.3000   24.3291 C   0  0  0  0  0  0  0  0  0  0  0  0
    5.8693   -3.0152   23.5258 C   0  0  0  0  0  0  0  0  0  0  0  0
    7.2413   -2.2855   23.8488 C   0  0  0  0  0  0  0  0  0  0  0  0
    7.1909   -1.6010   25.2706 C   0  0  0  0  0  0  0  0  0  0  0  0
    6.1414   -0.6523   25.4926 O   0  0  0  0  0  0  0  0  0  0  0  0
    6.0882   -0.4627   26.9171 C   0  0  0  0  0  0  0  0  0  0  0  0
    6.7692   -1.6903   27.5565 C   0  0  0  0  0  0  0  0  0  0  0  0
    6.9450   -2.5488   26.3748 N   0  0  0  0  0  0  0  0  0  0  0  0
    7.8944   -3.6888   26.4600 C   0  0  0  0  0  0  0  0  0  0  0  0
    7.5772   -1.2762   22.6494 C   0  0  0  0  0  0  0  0  0  0  0  0
    6.5150   -0.1414   22.3935 C   0  0  0  0  0  0  0  0  0  0  0  0
    6.9149    0.8317   21.2399 C   0  0  0  0  0  0  0  0  0  0  0  0
    8.4318    1.2039   21.2634 C   0  0  0  0  0  0  0  0  0  0  0  0
    9.2798   -0.0774   21.1619 C   0  0  0  0  0  0  0  0  0  0  0  0
    9.0627   -0.6983   22.5802 C   0  0  0  0  0  0  0  0  0  0  0  0
   10.0976   -1.8587   22.7729 C   0  0  0  0  0  0  0  0  0  0  0  0
    9.8143   -2.7826   23.9785 C   0  0  0  0  0  0  0  0  0  0  0  0
    8.3711   -3.3965   23.9274 C   0  0  0  0  0  0  0  0  0  0  0  0
    9.2949    0.6129   23.4277 C   0  0  0  0  0  0  0  0  0  0  0  0
   10.6584    0.8305   23.7904 O   0  0  0  0  0  0  0  0  0  0  0  0
    8.8520    1.6938   22.5626 C   0  0  0  0  0  0  0  0  0  0  0  0
    8.8077    2.9837   22.9288 C   0  0  0  0  0  0  0  0  0  0  0  0
    6.1048   -3.1106   26.2370 H   0  0  0  0  0  0  0  0  0  0  0  0
   11.1988    0.9026   22.9880 H   0  0  0  0  0  0  0  0  0  0  0  0
  2  1  1  0  0  0
  2  3  1  0  0  0
  2 12  1  0  0  0
  2 21  1  0  0  0
  3  4  1  0  0  0
  4  5  1  0  0  0
  6  5  1  0  0  0
  6  7  1  0  0  0
  6 13  1  0  0  0
  6 21  1  0  0  0
  7  8  1  0  0  0
  7 11  1  0  0  0
  8  9  1  0  0  0
  9 10  1  0  0  0
 10 11  1  0  0  0
 11 12  1  0  0  0
 11 26  1  0  0  0
 13 14  1  0  0  0
 13 18  1  0  0  0
 14 15  1  0  0  0
 15 16  1  0  0  0
 16 17  1  0  0  0
 16 24  1  0  0  0
 18 17  1  0  0  0
 18 19  1  0  0  0
 18 22  1  0  0  0
 19 20  1  0  0  0
 20 21  1  0  0  0
 22 23  1  0  0  0
 22 24  1  0  0  0
 23 27  1  0  0  0
 24 25  2  0  0  0
M  CHG 1  11   1
M  END
> <minimizedAffinity>
-6.75867

$$$$
Row5


 27 32  0  0  0  0  0  0  0  0999 V2000
    9.6438   -5.2326   25.4981 C   0  0  0  0  0  0  0  0  0  0  0  0
    8.3352   -4.5060   25.0304 C   0  0  0  0  0  0  0  0  0  0  0  0
    7.3827   -5.6218   24.4567 C   0  0  0  0  0  0  0  0  0  0  0  0
    6.0692   -5.1182   23.8017 C   0  0  0  0  0  0  0  0  0  0  0  0
    6.2279   -3.8153   22.9646 C   0  0  0  0  0  0  0  0  0  0  0  0
    7.2563   -2.7179   23.4719 C   0  0  0  0  0  0  0  0  0  0  0  0
    6.7305   -2.0233   24.7886 C   0  0  0  0  0  0  0  0  0  0  0  0
    5.4429   -1.4003   24.7190 O   0  0  0  0  0  0  0  0  0  0  0  0
    5.0467   -1.1810   26.0838 C   0  0  0  0  0  0  0  0  0  0  0  0
    5.8835   -2.1433   26.9518 C   0  0  0  0  0  0  0  0  0  0  0  0
    6.5240   -2.9607   25.9096 N   0  0  0  0  0  0  0  0  0  0  0  0
    7.7049   -3.7838   26.2785 C   0  0  0  0  0  0  0  0  0  0  0  0
    7.5509   -1.6997   22.2691 C   0  0  0  0  0  0  0  0  0  0  0  0
    6.3007   -0.9195   21.7126 C   0  0  0  0  0  0  0  0  0  0  0  0
    6.6556    0.0835   20.5700 C   0  0  0  0  0  0  0  0  0  0  0  0
    7.9783    0.8677   20.8453 C   0  0  0  0  0  0  0  0  0  0  0  0
    9.1404   -0.1264   21.0255 C   0  0  0  0  0  0  0  0  0  0  0  0
    8.8081   -0.7306   22.4287 C   0  0  0  0  0  0  0  0  0  0  0  0
   10.0526   -1.5454   22.9206 C   0  0  0  0  0  0  0  0  0  0  0  0
    9.7834   -2.4666   24.1315 C   0  0  0  0  0  0  0  0  0  0  0  0
    8.6005   -3.4628   23.8657 C   0  0  0  0  0  0  0  0  0  0  0  0
    8.4995    0.6233   23.1791 C   0  0  0  0  0  0  0  0  0  0  0  0
    9.6489    1.2286   23.7712 O   0  0  0  0  0  0  0  0  0  0  0  0
    7.9729    1.5035   22.1492 C   0  0  0  0  0  0  0  0  0  0  0  0
    7.5098    2.7415   22.3788 C   0  0  0  0  0  0  0  0  0  0  0  0
    5.9125   -3.7406   25.6683 H   0  0  0  0  0  0  0  0  0  0  0  0
   10.3045    1.4201   23.0824 H   0  0  0  0  0  0  0  0  0  0  0  0
  2  1  1  0  0  0
  2  3  1  0  0  0
  2 12  1  0  0  0
  2 21  1  0  0  0
  3  4  1  0  0  0
  4  5  1  0  0  0
  6  5  1  0  0  0
  6  7  1  0  0  0
  6 13  1  0  0  0
  6 21  1  0  0  0
  7  8  1  0  0  0
  7 11  1  0  0  0
  8  9  1  0  0  0
  9 10  1  0  0  0
 10 11  1  0  0  0
 11 12  1  0  0  0
 11 26  1  0  0  0
 13 14  1  0  0  0
 13 18  1  0  0  0
 14 15  1  0  0  0
 15 16  1  0  0  0
 16 17  1  0  0  0
 16 24  1  0  0  0
 18 17  1  0  0  0
 18 19  1  0  0  0
 18 22  1  0  0  0
 19 20  1  0  0  0
 20 21  1  0  0  0
 22 23  1  0  0  0
 22 24  1  0  0  0
 23 27  1  0  0  0
 24 25  2  0  0  0
M  CHG 1  11   1
M  END
> <minimizedAffinity>
-6.60729

$$$$
Row5


 27 32  0  0  0  0  0  0  0  0999 V2000
    7.3012    2.7695   23.4035 C   0  0  0  0  0  0  0  0  0  0  0  0
    7.8365    1.3902   22.8838 C   0  0  0  0  0  0  0  0  0  0  0  0
    7.7934    1.4557   21.3105 C   0  0  0  0  0  0  0  0  0  0  0  0
    8.1512    0.1404   20.5690 C   0  0  0  0  0  0  0  0  0  0  0  0
    7.5988   -1.1484   21.2452 C   0  0  0  0  0  0  0  0  0  0  0  0
    7.5413   -1.1983   22.8306 C   0  0  0  0  0  0  0  0  0  0  0  0
    8.9946   -1.2828   23.4417 C   0  0  0  0  0  0  0  0  0  0  0  0
    9.8128   -2.3762   23.0106 O   0  0  0  0  0  0  0  0  0  0  0  0
   11.1532   -2.0320   23.4016 C   0  0  0  0  0  0  0  0  0  0  0  0
   11.1801   -0.5031   23.6052 C   0  0  0  0  0  0  0  0  0  0  0  0
    9.8536   -0.1370   23.0849 N   0  0  0  0  0  0  0  0  0  0  0  0
    9.3035    1.2017   23.4214 C   0  0  0  0  0  0  0  0  0  0  0  0
    6.5774   -2.4022   23.2687 C   0  0  0  0  0  0  0  0  0  0  0  0
    7.0162   -3.8375   22.7903 C   0  0  0  0  0  0  0  0  0  0  0  0
    6.0606   -4.9714   23.2788 C   0  0  0  0  0  0  0  0  0  0  0  0
    5.5962   -4.7735   24.7571 C   0  0  0  0  0  0  0  0  0  0  0  0
    4.8838   -3.4156   24.8975 C   0  0  0  0  0  0  0  0  0  0  0  0
    6.0902   -2.4272   24.7876 C   0  0  0  0  0  0  0  0  0  0  0  0
    5.5991   -1.0022   25.2155 C   0  0  0  0  0  0  0  0  0  0  0  0
    6.5688    0.1477   24.8620 C   0  0  0  0  0  0  0  0  0  0  0  0
    6.9239    0.1737   23.3338 C   0  0  0  0  0  0  0  0  0  0  0  0
    7.0697   -3.1713   25.7768 C   0  0  0  0  0  0  0  0  0  0  0  0
    6.9305   -2.7659   27.1386 O   0  0  0  0  0  0  0  0  0  0  0  0
    6.7161   -4.5761   25.6577 C   0  0  0  0  0  0  0  0  0  0  0  0
    7.3639   -5.5727   26.2798 C   0  0  0  0  0  0  0  0  0  0  0  0
    9.9156    0.0152   22.0782 H   0  0  0  0  0  0  0  0  0  0  0  0
    6.0248   -2.9426   27.4376 H   0  0  0  0  0  0  0  0  0  0  0  0
  2  1  1  0  0  0
  2  3  1  0  0  0
  2 12  1  0  0  0
  2 21  1  0  0  0
  3  4  1  0  0  0
  4  5  1  0  0  0
  6  5  1  0  0  0
  6  7  1  0  0  0
  6 13  1  0  0  0
  6 21  1  0  0  0
  7  8  1  0  0  0
  7 11  1  0  0  0
  8  9  1  0  0  0
  9 10  1  0  0  0
 10 11  1  0  0  0
 11 12  1  0  0  0
 11 26  1  0  0  0
 13 14  1  0  0  0
 13 18  1  0  0  0
 14 15  1  0  0  0
 15 16  1  0  0  0
 16 17  1  0  0  0
 16 24  1  0  0  0
 18 17  1  0  0  0
 18 19  1  0  0  0
 18 22  1  0  0  0
 19 20  1  0  0  0
 20 21  1  0  0  0
 22 23  1  0  0  0
 22 24  1  0  0  0
 23 27  1  0  0  0
 24 25  2  0  0  0
M  CHG 1  11   1
M  END
> <minimizedAffinity>
-6.52236

$$$$
Row6


 27 32  0  0  0  0  0  0  0  0999 V2000
    9.6583   -5.0412   25.4990 C   0  0  0  0  0  0  0  0  0  0  0  0
    8.4564   -4.5878   24.5990 C   0  0  0  0  0  0  0  0  0  0  0  0
    8.1529   -5.7861   23.6240 C   0  0  0  0  0  0  0  0  0  0  0  0
    7.0567   -5.5217   22.5615 C   0  0  0  0  0  0  0  0  0  0  0  0
    7.1051   -4.0931   21.9436 C   0  0  0  0  0  0  0  0  0  0  0  0
    7.5072   -2.8753   22.8836 C   0  0  0  0  0  0  0  0  0  0  0  0
    6.3315   -2.5823   23.8971 C   0  0  0  0  0  0  0  0  0  0  0  0
    6.0744   -3.7206   24.8086 N   0  0  0  0  0  0  0  0  0  0  0  0
    5.0434   -3.5980   25.8459 C   0  0  0  0  0  0  0  0  0  0  0  0
    5.3962   -4.8154   26.7253 C   0  0  0  0  0  0  0  0  0  0  0  0
    6.6833   -5.2989   26.2930 O   0  0  0  0  0  0  0  0  0  0  0  0
    7.2526   -4.2212   25.5394 C   0  0  0  0  0  0  0  0  0  0  0  0
    7.8640   -1.6165   21.9610 C   0  0  0  0  0  0  0  0  0  0  0  0
    6.6823   -1.0963   21.0574 C   0  0  0  0  0  0  0  0  0  0  0  0
    7.0610    0.1543   20.2043 C   0  0  0  0  0  0  0  0  0  0  0  0
    7.9234    1.1770   21.0059 C   0  0  0  0  0  0  0  0  0  0  0  0
    9.2193    0.4939   21.4904 C   0  0  0  0  0  0  0  0  0  0  0  0
    8.6678   -0.4112   22.6382 C   0  0  0  0  0  0  0  0  0  0  0  0
    9.8601   -0.9755   23.4794 C   0  0  0  0  0  0  0  0  0  0  0  0
    9.4534   -2.1089   24.4524 C   0  0  0  0  0  0  0  0  0  0  0  0
    8.7890   -3.3175   23.7050 C   0  0  0  0  0  0  0  0  0  0  0  0
    7.7902    0.6868   23.3528 C   0  0  0  0  0  0  0  0  0  0  0  0
    8.5285    1.5242   24.2466 O   0  0  0  0  0  0  0  0  0  0  0  0
    7.2946    1.5134   22.2679 C   0  0  0  0  0  0  0  0  0  0  0  0
    6.3375    2.4427   22.4068 C   0  0  0  0  0  0  0  0  0  0  0  0
    5.7400   -4.3545   24.0828 H   0  0  0  0  0  0  0  0  0  0  0  0
    9.2303    1.9806   23.7566 H   0  0  0  0  0  0  0  0  0  0  0  0
  2  1  1  0  0  0
  2  3  1  0  0  0
  2 12  1  0  0  0
  2 21  1  0  0  0
  3  4  1  0  0  0
  4  5  1  0  0  0
  6  5  1  0  0  0
  6  7  1  0  0  0
  6 13  1  0  0  0
  6 21  1  0  0  0
  7  8  1  0  0  0
  8  9  1  0  0  0
  8 12  1  0  0  0
  8 26  1  0  0  0
  9 10  1  0  0  0
 10 11  1  0  0  0
 11 12  1  0  0  0
 13 14  1  0  0  0
 13 18  1  0  0  0
 14 15  1  0  0  0
 15 16  1  0  0  0
 16 17  1  0  0  0
 16 24  1  0  0  0
 18 17  1  0  0  0
 18 19  1  0  0  0
 18 22  1  0  0  0
 19 20  1  0  0  0
 20 21  1  0  0  0
 22 23  1  0  0  0
 22 24  1  0  0  0
 23 27  1  0  0  0
 24 25  2  0  0  0
M  CHG 1   8   1
M  END
> <minimizedAffinity>
-7.14640

$$$$
Row6


 27 32  0  0  0  0  0  0  0  0999 V2000
    7.2010    2.7810   23.6948 C   0  0  0  0  0  0  0  0  0  0  0  0
    7.8367    1.5354   22.9845 C   0  0  0  0  0  0  0  0  0  0  0  0
    7.4425    1.6401   21.4639 C   0  0  0  0  0  0  0  0  0  0  0  0
    7.8806    0.4479   20.5766 C   0  0  0  0  0  0  0  0  0  0  0  0
    7.7236   -0.9421   21.2609 C   0  0  0  0  0  0  0  0  0  0  0  0
    8.0186   -1.0561   22.8191 C   0  0  0  0  0  0  0  0  0  0  0  0
    9.5717   -0.9167   23.0722 C   0  0  0  0  0  0  0  0  0  0  0  0
   10.0940    0.4075   22.6641 N   0  0  0  0  0  0  0  0  0  0  0  0
   11.5122    0.7217   22.8740 C   0  0  0  0  0  0  0  0  0  0  0  0
   11.4868    2.2493   22.6606 C   0  0  0  0  0  0  0  0  0  0  0  0
   10.1048    2.6580   22.6458 O   0  0  0  0  0  0  0  0  0  0  0  0
    9.3870    1.5675   23.2364 C   0  0  0  0  0  0  0  0  0  0  0  0
    7.4221   -2.4437   23.3498 C   0  0  0  0  0  0  0  0  0  0  0  0
    8.0479   -3.7326   22.6937 C   0  0  0  0  0  0  0  0  0  0  0  0
    7.4664   -5.0624   23.2669 C   0  0  0  0  0  0  0  0  0  0  0  0
    7.2724   -5.0041   24.8133 C   0  0  0  0  0  0  0  0  0  0  0  0
    6.3163   -3.8473   25.1718 C   0  0  0  0  0  0  0  0  0  0  0  0
    7.2405   -2.6111   24.9299 C   0  0  0  0  0  0  0  0  0  0  0  0
    6.5683   -1.3299   25.5250 C   0  0  0  0  0  0  0  0  0  0  0  0
    7.2498   -0.0101   25.0887 C   0  0  0  0  0  0  0  0  0  0  0  0
    7.2767    0.1520   23.5286 C   0  0  0  0  0  0  0  0  0  0  0  0
    8.4985   -3.1469   25.7151 C   0  0  0  0  0  0  0  0  0  0  0  0
    8.4315   -2.9331   27.1276 O   0  0  0  0  0  0  0  0  0  0  0  0
    8.4892   -4.5782   25.4759 C   0  0  0  0  0  0  0  0  0  0  0  0
    9.5029   -5.3996   25.7870 C   0  0  0  0  0  0  0  0  0  0  0  0
    9.9284    0.2755   21.6663 H   0  0  0  0  0  0  0  0  0  0  0  0
    7.6483   -3.3798   27.4854 H   0  0  0  0  0  0  0  0  0  0  0  0
  2  1  1  0  0  0
  2  3  1  0  0  0
  2 12  1  0  0  0
  2 21  1  0  0  0
  3  4  1  0  0  0
  4  5  1  0  0  0
  6  5  1  0  0  0
  6  7  1  0  0  0
  6 13  1  0  0  0
  6 21  1  0  0  0
  7  8  1  0  0  0
  8  9  1  0  0  0
  8 12  1  0  0  0
  8 26  1  0  0  0
  9 10  1  0  0  0
 10 11  1  0  0  0
 11 12  1  0  0  0
 13 14  1  0  0  0
 13 18  1  0  0  0
 14 15  1  0  0  0
 15 16  1  0  0  0
 16 17  1  0  0  0
 16 24  1  0  0  0
 18 17  1  0  0  0
 18 19  1  0  0  0
 18 22  1  0  0  0
 19 20  1  0  0  0
 20 21  1  0  0  0
 22 23  1  0  0  0
 22 24  1  0  0  0
 23 27  1  0  0  0
 24 25  2  0  0  0
M  CHG 1   8   1
M  END
> <minimizedAffinity>
-7.02164

$$$$
Row6


 27 32  0  0  0  0  0  0  0  0999 V2000
    5.9394   -5.4319   23.3789 C   0  0  0  0  0  0  0  0  0  0  0  0
    6.2742   -4.1711   24.2498 C   0  0  0  0  0  0  0  0  0  0  0  0
    4.9228   -3.7209   24.9203 C   0  0  0  0  0  0  0  0  0  0  0  0
    4.9928   -2.4174   25.7547 C   0  0  0  0  0  0  0  0  0  0  0  0
    5.8800   -1.3061   25.1202 C   0  0  0  0  0  0  0  0  0  0  0  0
    7.2009   -1.7405   24.3490 C   0  0  0  0  0  0  0  0  0  0  0  0
    8.2771   -2.2430   25.3904 C   0  0  0  0  0  0  0  0  0  0  0  0
    7.8315   -3.4481   26.1266 N   0  0  0  0  0  0  0  0  0  0  0  0
    8.7321   -4.0743   27.1017 C   0  0  0  0  0  0  0  0  0  0  0  0
    8.0164   -5.4259   27.3040 C   0  0  0  0  0  0  0  0  0  0  0  0
    7.0155   -5.5404   26.2734 O   0  0  0  0  0  0  0  0  0  0  0  0
    7.3866   -4.5727   25.2839 C   0  0  0  0  0  0  0  0  0  0  0  0
    7.7106   -0.5004   23.4741 C   0  0  0  0  0  0  0  0  0  0  0  0
    8.0930    0.7857   24.3005 C   0  0  0  0  0  0  0  0  0  0  0  0
    8.6212    1.9559   23.4134 C   0  0  0  0  0  0  0  0  0  0  0  0
    9.5732    1.4571   22.2833 C   0  0  0  0  0  0  0  0  0  0  0  0
    8.8265    0.4491   21.3848 C   0  0  0  0  0  0  0  0  0  0  0  0
    8.7751   -0.8018   22.3193 C   0  0  0  0  0  0  0  0  0  0  0  0
    8.3240   -2.0530   21.4957 C   0  0  0  0  0  0  0  0  0  0  0  0
    7.9572   -3.2754   22.3720 C   0  0  0  0  0  0  0  0  0  0  0  0
    6.8142   -2.9461   23.3948 C   0  0  0  0  0  0  0  0  0  0  0  0
   10.2898   -0.7851   22.7571 C   0  0  0  0  0  0  0  0  0  0  0  0
   11.1689   -1.4110   21.8187 O   0  0  0  0  0  0  0  0  0  0  0  0
   10.6302    0.6241   22.8216 C   0  0  0  0  0  0  0  0  0  0  0  0
   11.7639    1.1005   23.3571 C   0  0  0  0  0  0  0  0  0  0  0  0
    7.0737   -2.9834   26.6268 H   0  0  0  0  0  0  0  0  0  0  0  0
   11.1042   -0.9582   20.9633 H   0  0  0  0  0  0  0  0  0  0  0  0
  2  1  1  0  0  0
  2  3  1  0  0  0
  2 12  1  0  0  0
  2 21  1  0  0  0
  3  4  1  0  0  0
  4  5  1  0  0  0
  6  5  1  0  0  0
  6  7  1  0  0  0
  6 13  1  0  0  0
  6 21  1  0  0  0
  7  8  1  0  0  0
  8  9  1  0  0  0
  8 12  1  0  0  0
  8 26  1  0  0  0
  9 10  1  0  0  0
 10 11  1  0  0  0
 11 12  1  0  0  0
 13 14  1  0  0  0
 13 18  1  0  0  0
 14 15  1  0  0  0
 15 16  1  0  0  0
 16 17  1  0  0  0
 16 24  1  0  0  0
 18 17  1  0  0  0
 18 19  1  0  0  0
 18 22  1  0  0  0
 19 20  1  0  0  0
 20 21  1  0  0  0
 22 23  1  0  0  0
 22 24  1  0  0  0
 23 27  1  0  0  0
 24 25  2  0  0  0
M  CHG 1   8   1
M  END
> <minimizedAffinity>
-7.00287

$$$$
Row6


 27 32  0  0  0  0  0  0  0  0999 V2000
    8.1757   -5.5730   26.6642 C   0  0  0  0  0  0  0  0  0  0  0  0
    7.2093   -4.6097   25.8907 C   0  0  0  0  0  0  0  0  0  0  0  0
    6.1046   -5.5193   25.2345 C   0  0  0  0  0  0  0  0  0  0  0  0
    5.0879   -4.7847   24.3251 C   0  0  0  0  0  0  0  0  0  0  0  0
    5.7211   -3.6754   23.4343 C   0  0  0  0  0  0  0  0  0  0  0  0
    6.9085   -2.8067   24.0373 C   0  0  0  0  0  0  0  0  0  0  0  0
    6.3390   -1.8324   25.1427 C   0  0  0  0  0  0  0  0  0  0  0  0
    5.7556   -2.5614   26.2922 N   0  0  0  0  0  0  0  0  0  0  0  0
    5.2220   -1.8064   27.4320 C   0  0  0  0  0  0  0  0  0  0  0  0
    5.0903   -2.9393   28.4708 C   0  0  0  0  0  0  0  0  0  0  0  0
    5.7916   -4.0848   27.9484 O   0  0  0  0  0  0  0  0  0  0  0  0
    6.6375   -3.5649   26.9151 C   0  0  0  0  0  0  0  0  0  0  0  0
    7.6335   -2.0334   22.8376 C   0  0  0  0  0  0  0  0  0  0  0  0
    6.7175   -1.0259   22.0442 C   0  0  0  0  0  0  0  0  0  0  0  0
    7.4729   -0.2658   20.9099 C   0  0  0  0  0  0  0  0  0  0  0  0
    8.9035    0.1762   21.3462 C   0  0  0  0  0  0  0  0  0  0  0  0
    9.7282   -1.0641   21.7490 C   0  0  0  0  0  0  0  0  0  0  0  0
    9.0810   -1.4177   23.1263 C   0  0  0  0  0  0  0  0  0  0  0  0
    9.9678   -2.4728   23.8665 C   0  0  0  0  0  0  0  0  0  0  0  0
    9.2790   -3.1103   25.0978 C   0  0  0  0  0  0  0  0  0  0  0  0
    7.9274   -3.8112   24.7201 C   0  0  0  0  0  0  0  0  0  0  0  0
    9.1023    0.0366   23.7351 C   0  0  0  0  0  0  0  0  0  0  0  0
   10.3569    0.4005   24.3170 O   0  0  0  0  0  0  0  0  0  0  0  0
    8.8648    0.9062   22.5979 C   0  0  0  0  0  0  0  0  0  0  0  0
    8.5954    2.2165   22.6960 C   0  0  0  0  0  0  0  0  0  0  0  0
    4.9782   -2.9643   25.7690 H   0  0  0  0  0  0  0  0  0  0  0  0
   11.0522    0.3531   23.6423 H   0  0  0  0  0  0  0  0  0  0  0  0
  2  1  1  0  0  0
  2  3  1  0  0  0
  2 12  1  0  0  0
  2 21  1  0  0  0
  3  4  1  0  0  0
  4  5  1  0  0  0
  6  5  1  0  0  0
  6  7  1  0  0  0
  6 13  1  0  0  0
  6 21  1  0  0  0
  7  8  1  0  0  0
  8  9  1  0  0  0
  8 12  1  0  0  0
  8 26  1  0  0  0
  9 10  1  0  0  0
 10 11  1  0  0  0
 11 12  1  0  0  0
 13 14  1  0  0  0
 13 18  1  0  0  0
 14 15  1  0  0  0
 15 16  1  0  0  0
 16 17  1  0  0  0
 16 24  1  0  0  0
 18 17  1  0  0  0
 18 19  1  0  0  0
 18 22  1  0  0  0
 19 20  1  0  0  0
 20 21  1  0  0  0
 22 23  1  0  0  0
 22 24  1  0  0  0
 23 27  1  0  0  0
 24 25  2  0  0  0
M  CHG 1   8   1
M  END
> <minimizedAffinity>
-6.92977

$$$$
Row6


 27 32  0  0  0  0  0  0  0  0999 V2000
    9.9670    1.0551   22.0546 C   0  0  0  0  0  0  0  0  0  0  0  0
    8.4730    0.6864   22.3587 C   0  0  0  0  0  0  0  0  0  0  0  0
    7.7535    2.0304   22.7519 C   0  0  0  0  0  0  0  0  0  0  0  0
    6.2763    1.8915   23.1981 C   0  0  0  0  0  0  0  0  0  0  0  0
    5.9985    0.6455   24.0898 C   0  0  0  0  0  0  0  0  0  0  0  0
    6.7871   -0.6994   23.7777 C   0  0  0  0  0  0  0  0  0  0  0  0
    6.2443   -1.3279   22.4339 C   0  0  0  0  0  0  0  0  0  0  0  0
    6.4773   -0.4495   21.2647 N   0  0  0  0  0  0  0  0  0  0  0  0
    6.0752   -0.9026   19.9279 C   0  0  0  0  0  0  0  0  0  0  0  0
    6.8275    0.1233   19.0553 C   0  0  0  0  0  0  0  0  0  0  0  0
    7.7517    0.8211   19.9131 O   0  0  0  0  0  0  0  0  0  0  0  0
    7.8693   -0.0004   21.0813 C   0  0  0  0  0  0  0  0  0  0  0  0
    6.6342   -1.6819   25.0324 C   0  0  0  0  0  0  0  0  0  0  0  0
    5.1553   -2.1126   25.3652 C   0  0  0  0  0  0  0  0  0  0  0  0
    5.0554   -3.1000   26.5695 C   0  0  0  0  0  0  0  0  0  0  0  0
    6.1827   -4.1775   26.5450 C   0  0  0  0  0  0  0  0  0  0  0  0
    7.5612   -3.4853   26.5819 C   0  0  0  0  0  0  0  0  0  0  0  0
    7.6474   -2.9155   25.1297 C   0  0  0  0  0  0  0  0  0  0  0  0
    9.1060   -2.4273   24.8441 C   0  0  0  0  0  0  0  0  0  0  0  0
    9.2378   -1.5827   23.5534 C   0  0  0  0  0  0  0  0  0  0  0  0
    8.3127   -0.3160   23.5806 C   0  0  0  0  0  0  0  0  0  0  0  0
    7.2090   -4.2285   24.3747 C   0  0  0  0  0  0  0  0  0  0  0  0
    8.2750   -5.1592   24.1687 O   0  0  0  0  0  0  0  0  0  0  0  0
    6.2381   -4.8452   25.2596 C   0  0  0  0  0  0  0  0  0  0  0  0
    5.4541   -5.8771   24.9141 C   0  0  0  0  0  0  0  0  0  0  0  0
    5.8429    0.2892   21.5685 H   0  0  0  0  0  0  0  0  0  0  0  0
    8.6453   -5.4217   25.0259 H   0  0  0  0  0  0  0  0  0  0  0  0
  2  1  1  0  0  0
  2  3  1  0  0  0
  2 12  1  0  0  0
  2 21  1  0  0  0
  3  4  1  0  0  0
  4  5  1  0  0  0
  6  5  1  0  0  0
  6  7  1  0  0  0
  6 13  1  0  0  0
  6 21  1  0  0  0
  7  8  1  0  0  0
  8  9  1  0  0  0
  8 12  1  0  0  0
  8 26  1  0  0  0
  9 10  1  0  0  0
 10 11  1  0  0  0
 11 12  1  0  0  0
 13 14  1  0  0  0
 13 18  1  0  0  0
 14 15  1  0  0  0
 15 16  1  0  0  0
 16 17  1  0  0  0
 16 24  1  0  0  0
 18 17  1  0  0  0
 18 19  1  0  0  0
 18 22  1  0  0  0
 19 20  1  0  0  0
 20 21  1  0  0  0
 22 23  1  0  0  0
 22 24  1  0  0  0
 23 27  1  0  0  0
 24 25  2  0  0  0
M  CHG 1   8   1
M  END
> <minimizedAffinity>
-6.89969

$$$$
Row6


 27 32  0  0  0  0  0  0  0  0999 V2000
    6.5948    0.8729   20.3923 C   0  0  0  0  0  0  0  0  0  0  0  0
    7.4547    0.6053   21.6765 C   0  0  0  0  0  0  0  0  0  0  0  0
    8.8825    1.2032   21.3894 C   0  0  0  0  0  0  0  0  0  0  0  0
    9.9425    0.9610   22.4930 C   0  0  0  0  0  0  0  0  0  0  0  0
    9.8778   -0.4573   23.1329 C   0  0  0  0  0  0  0  0  0  0  0  0
    8.4518   -1.1284   23.3428 C   0  0  0  0  0  0  0  0  0  0  0  0
    7.6851   -0.3825   24.5052 C   0  0  0  0  0  0  0  0  0  0  0  0
    7.4133    1.0371   24.1829 N   0  0  0  0  0  0  0  0  0  0  0  0
    6.6663    1.8652   25.1369 C   0  0  0  0  0  0  0  0  0  0  0  0
    6.3262    3.0735   24.2401 C   0  0  0  0  0  0  0  0  0  0  0  0
    6.6362    2.7016   22.8827 O   0  0  0  0  0  0  0  0  0  0  0  0
    6.7276    1.2717   22.8993 C   0  0  0  0  0  0  0  0  0  0  0  0
    8.6615   -2.6885   23.6343 C   0  0  0  0  0  0  0  0  0  0  0  0
    9.4922   -3.0181   24.9323 C   0  0  0  0  0  0  0  0  0  0  0  0
    9.6394   -4.5485   25.1998 C   0  0  0  0  0  0  0  0  0  0  0  0
    8.3192   -5.3278   24.9136 C   0  0  0  0  0  0  0  0  0  0  0  0
    7.9022   -5.1173   23.4430 C   0  0  0  0  0  0  0  0  0  0  0  0
    7.3868   -3.6432   23.4875 C   0  0  0  0  0  0  0  0  0  0  0  0
    6.6275   -3.3133   22.1601 C   0  0  0  0  0  0  0  0  0  0  0  0
    6.3313   -1.8055   21.9712 C   0  0  0  0  0  0  0  0  0  0  0  0
    7.6395   -0.9401   21.9944 C   0  0  0  0  0  0  0  0  0  0  0  0
    6.4826   -3.7875   24.7712 C   0  0  0  0  0  0  0  0  0  0  0  0
    5.1853   -4.3275   24.5057 O   0  0  0  0  0  0  0  0  0  0  0  0
    7.1985   -4.7294   25.6115 C   0  0  0  0  0  0  0  0  0  0  0  0
    6.8898   -4.9803   26.8925 C   0  0  0  0  0  0  0  0  0  0  0  0
    8.3909    1.3279   24.1867 H   0  0  0  0  0  0  0  0  0  0  0  0
    5.2765   -5.2078   24.1087 H   0  0  0  0  0  0  0  0  0  0  0  0
  2  1  1  0  0  0
  2  3  1  0  0  0
  2 12  1  0  0  0
  2 21  1  0  0  0
  3  4  1  0  0  0
  4  5  1  0  0  0
  6  5  1  0  0  0
  6  7  1  0  0  0
  6 13  1  0  0  0
  6 21  1  0  0  0
  7  8  1  0  0  0
  8  9  1  0  0  0
  8 12  1  0  0  0
  8 26  1  0  0  0
  9 10  1  0  0  0
 10 11  1  0  0  0
 11 12  1  0  0  0
 13 14  1  0  0  0
 13 18  1  0  0  0
 14 15  1  0  0  0
 15 16  1  0  0  0
 16 17  1  0  0  0
 16 24  1  0  0  0
 18 17  1  0  0  0
 18 19  1  0  0  0
 18 22  1  0  0  0
 19 20  1  0  0  0
 20 21  1  0  0  0
 22 23  1  0  0  0
 22 24  1  0  0  0
 23 27  1  0  0  0
 24 25  2  0  0  0
M  CHG 1   8   1
M  END
> <minimizedAffinity>
-6.72318

$$$$
Row6


 27 32  0  0  0  0  0  0  0  0999 V2000
    6.1878   -3.0126   27.8486 C   0  0  0  0  0  0  0  0  0  0  0  0
    6.9413   -3.3803   26.5230 C   0  0  0  0  0  0  0  0  0  0  0  0
    8.1475   -4.3033   26.9373 C   0  0  0  0  0  0  0  0  0  0  0  0
    9.1030   -4.7102   25.7876 C   0  0  0  0  0  0  0  0  0  0  0  0
    9.3952   -3.5663   24.7722 C   0  0  0  0  0  0  0  0  0  0  0  0
    8.2211   -2.5568   24.4110 C   0  0  0  0  0  0  0  0  0  0  0  0
    7.1432   -3.2984   23.5258 C   0  0  0  0  0  0  0  0  0  0  0  0
    6.4966   -4.4202   24.2446 N   0  0  0  0  0  0  0  0  0  0  0  0
    5.4358   -5.1881   23.5821 C   0  0  0  0  0  0  0  0  0  0  0  0
    4.8510   -5.9444   24.7928 C   0  0  0  0  0  0  0  0  0  0  0  0
    5.4057   -5.3470   25.9813 O   0  0  0  0  0  0  0  0  0  0  0  0
    5.9180   -4.0780   25.5564 C   0  0  0  0  0  0  0  0  0  0  0  0
    8.8543   -1.2792   23.6831 C   0  0  0  0  0  0  0  0  0  0  0  0
    9.5971   -1.5847   22.3273 C   0  0  0  0  0  0  0  0  0  0  0  0
   10.1647   -0.3081   21.6323 C   0  0  0  0  0  0  0  0  0  0  0  0
    9.1779    0.8968   21.7135 C   0  0  0  0  0  0  0  0  0  0  0  0
    8.8819    1.2248   23.1919 C   0  0  0  0  0  0  0  0  0  0  0  0
    7.9477    0.0342   23.5799 C   0  0  0  0  0  0  0  0  0  0  0  0
    7.2756    0.3245   24.9625 C   0  0  0  0  0  0  0  0  0  0  0  0
    6.5649   -0.9049   25.5790 C   0  0  0  0  0  0  0  0  0  0  0  0
    7.5435   -2.1151   25.7745 C   0  0  0  0  0  0  0  0  0  0  0  0
    6.9922    0.1153   22.3282 C   0  0  0  0  0  0  0  0  0  0  0  0
    5.9533    1.0895   22.4572 O   0  0  0  0  0  0  0  0  0  0  0  0
    7.8598    0.5244   21.2392 C   0  0  0  0  0  0  0  0  0  0  0  0
    7.5010    0.5140   19.9469 C   0  0  0  0  0  0  0  0  0  0  0  0
    7.3359   -4.9969   24.3024 H   0  0  0  0  0  0  0  0  0  0  0  0
    6.3467    1.9669   22.5851 H   0  0  0  0  0  0  0  0  0  0  0  0
  2  1  1  0  0  0
  2  3  1  0  0  0
  2 12  1  0  0  0
  2 21  1  0  0  0
  3  4  1  0  0  0
  4  5  1  0  0  0
  6  5  1  0  0  0
  6  7  1  0  0  0
  6 13  1  0  0  0
  6 21  1  0  0  0
  7  8  1  0  0  0
  8  9  1  0  0  0
  8 12  1  0  0  0
  8 26  1  0  0  0
  9 10  1  0  0  0
 10 11  1  0  0  0
 11 12  1  0  0  0
 13 14  1  0  0  0
 13 18  1  0  0  0
 14 15  1  0  0  0
 15 16  1  0  0  0
 16 17  1  0  0  0
 16 24  1  0  0  0
 18 17  1  0  0  0
 18 19  1  0  0  0
 18 22  1  0  0  0
 19 20  1  0  0  0
 20 21  1  0  0  0
 22 23  1  0  0  0
 22 24  1  0  0  0
 23 27  1  0  0  0
 24 25  2  0  0  0
M  CHG 1   8   1
M  END
> <minimizedAffinity>
-6.48965

$$$$
Row6


 27 32  0  0  0  0  0  0  0  0999 V2000
    6.1700   -4.4324   21.8136 C   0  0  0  0  0  0  0  0  0  0  0  0
    6.3212   -3.4561   23.0319 C   0  0  0  0  0  0  0  0  0  0  0  0
    5.1752   -3.8273   24.0454 C   0  0  0  0  0  0  0  0  0  0  0  0
    5.0650   -2.9148   25.2926 C   0  0  0  0  0  0  0  0  0  0  0  0
    5.2919   -1.4035   24.9937 C   0  0  0  0  0  0  0  0  0  0  0 