Row0


 12 13  0  0  0  0  0  0  0  0999 V2000
    6.2222    0.2376   18.2541 C   0  0  0  0  0  0  0  0  0  0  0  0
    7.3588    0.0742   19.0662 C   0  0  0  0  0  0  0  0  0  0  0  0
    7.4081    0.7203   20.3220 C   0  0  0  0  0  0  0  0  0  0  0  0
    6.3123    1.5142   20.7307 C   0  0  0  0  0  0  0  0  0  0  0  0
    5.1997    1.6406   19.8807 C   0  0  0  0  0  0  0  0  0  0  0  0
    5.1883    1.0060   18.6807 N   0  0  0  0  0  0  0  0  0  0  0  0
    8.5374    0.5744   21.1575 C   0  0  0  0  0  0  0  0  0  0  0  0
    9.1430   -0.6914   21.3292 C   0  0  0  0  0  0  0  0  0  0  0  0
   10.2646   -0.8090   22.1685 C   0  0  0  0  0  0  0  0  0  0  0  0
   10.7560    0.2875   22.8002 N   0  0  0  0  0  0  0  0  0  0  0  0
   10.2028    1.5183   22.6578 C   0  0  0  0  0  0  0  0  0  0  0  0
    9.0771    1.6921   21.8329 C   0  0  0  0  0  0  0  0  0  0  0  0
  1  2  2  0  0  0
  1  6  1  0  0  0
  2  3  1  0  0  0
  3  4  2  0  0  0
  3  7  1  0  0  0
  4  5  1  0  0  0
  5  6  2  0  0  0
  7  8  2  0  0  0
  7 12  1  0  0  0
  8  9  1  0  0  0
  9 10  2  0  0  0
 10 11  1  0  0  0
 11 12  2  0  0  0
M  END
> <minimizedAffinity>
-4.61203

$$$$
Row0


 12 13  0  0  0  0  0  0  0  0999 V2000
    5.1843    1.6518   19.8718 C   0  0  0  0  0  0  0  0  0  0  0  0
    6.3002    1.5214   20.7178 C   0  0  0  0  0  0  0  0  0  0  0  0
    7.3832    0.7099   20.3112 C   0  0  0  0  0  0  0  0  0  0  0  0
    7.3177    0.0501   19.0627 C   0  0  0  0  0  0  0  0  0  0  0  0
    6.1794    0.2182   18.2550 C   0  0  0  0  0  0  0  0  0  0  0  0
    5.1577    1.0048   18.6794 N   0  0  0  0  0  0  0  0  0  0  0  0
    8.5160    0.5603   21.1413 C   0  0  0  0  0  0  0  0  0  0  0  0
    9.0744    1.6795   21.8002 C   0  0  0  0  0  0  0  0  0  0  0  0
   10.2035    1.5030   22.6188 C   0  0  0  0  0  0  0  0  0  0  0  0
   10.7428    0.2666   22.7717 N   0  0  0  0  0  0  0  0  0  0  0  0
   10.2331   -0.8306   22.1571 C   0  0  0  0  0  0  0  0  0  0  0  0
    9.1064   -0.7104   21.3242 C   0  0  0  0  0  0  0  0  0  0  0  0
  1  2  2  0  0  0
  1  6  1  0  0  0
  2  3  1  0  0  0
  3  4  2  0  0  0
  3  7  1  0  0  0
  4  5  1  0  0  0
  5  6  2  0  0  0
  7  8  2  0  0  0
  7 12  1  0  0  0
  8  9  1  0  0  0
  9 10  2  0  0  0
 10 11  1  0  0  0
 11 12  2  0  0  0
M  END
> <minimizedAffinity>
-4.61200

$$$$
Row0


 12 13  0  0  0  0  0  0  0  0999 V2000
   10.0706    1.7586   22.6031 C   0  0  0  0  0  0  0  0  0  0  0  0
    8.9427    1.8372   21.7667 C   0  0  0  0  0  0  0  0  0  0  0  0
    8.4565    0.6616   21.1518 C   0  0  0  0  0  0  0  0  0  0  0  0
    9.1163   -0.5649   21.3941 C   0  0  0  0  0  0  0  0  0  0  0  0
   10.2376   -0.5868   22.2416 C   0  0  0  0  0  0  0  0  0  0  0  0
   10.6769    0.5631   22.8140 N   0  0  0  0  0  0  0  0  0  0  0  0
    7.3262    0.7116   20.3064 C   0  0  0  0  0  0  0  0  0  0  0  0
    6.2279    1.5420   20.6268 C   0  0  0  0  0  0  0  0  0  0  0  0
    5.1144    1.5711   19.7692 C   0  0  0  0  0  0  0  0  0  0  0  0
    5.1045    0.8090   18.6458 N   0  0  0  0  0  0  0  0  0  0  0  0
    6.1407    0.0020   18.3049 C   0  0  0  0  0  0  0  0  0  0  0  0
    7.2782   -0.0680   19.1289 C   0  0  0  0  0  0  0  0  0  0  0  0
  1  2  2  0  0  0
  1  6  1  0  0  0
  2  3  1  0  0  0
  3  4  2  0  0  0
  3  7  1  0  0  0
  4  5  1  0  0  0
  5  6  2  0  0  0
  7  8  2  0  0  0
  7 12  1  0  0  0
  8  9  1  0  0  0
  9 10  2  0  0  0
 10 11  1  0  0  0
 11 12  2  0  0  0
M  END
> <minimizedAffinity>
-4.59325

$$$$
Row0


 12 13  0  0  0  0  0  0  0  0999 V2000
    5.5972   -3.6435   22.0515 C   0  0  0  0  0  0  0  0  0  0  0  0
    6.2162   -3.6823   23.3138 C   0  0  0  0  0  0  0  0  0  0  0  0
    7.0812   -4.7552   23.6254 C   0  0  0  0  0  0  0  0  0  0  0  0
    7.3034   -5.7627   22.6590 C   0  0  0  0  0  0  0  0  0  0  0  0
    6.6613   -5.6727   21.4116 C   0  0  0  0  0  0  0  0  0  0  0  0
    5.8359   -4.6276   21.1483 N   0  0  0  0  0  0  0  0  0  0  0  0
    7.7154   -4.8199   24.8857 C   0  0  0  0  0  0  0  0  0  0  0  0
    6.9858   -4.5635   26.0690 C   0  0  0  0  0  0  0  0  0  0  0  0
    7.6421   -4.6324   27.3102 C   0  0  0  0  0  0  0  0  0  0  0  0
    8.9618   -4.9460   27.3622 N   0  0  0  0  0  0  0  0  0  0  0  0
    9.6937   -5.2004   26.2483 C   0  0  0  0  0  0  0  0  0  0  0  0
    9.0880   -5.1420   24.9804 C   0  0  0  0  0  0  0  0  0  0  0  0
  1  2  2  0  0  0
  1  6  1  0  0  0
  2  3  1  0  0  0
  3  4  2  0  0  0
  3  7  1  0  0  0
  4  5  1  0  0  0
  5  6  2  0  0  0
  7  8  2  0  0  0
  7 12  1  0  0  0
  8  9  1  0  0  0
  9 10  2  0  0  0
 10 11  1  0  0  0
 11 12  2  0  0  0
M  END
> <minimizedAffinity>
-4.50758

$$$$
Row0


 12 13  0  0  0  0  0  0  0  0999 V2000
    6.6247   -5.6440   21.4093 C   0  0  0  0  0  0  0  0  0  0  0  0
    7.2528   -5.7516   22.6630 C   0  0  0  0  0  0  0  0  0  0  0  0
    7.0026   -4.7684   23.6466 C   0  0  0  0  0  0  0  0  0  0  0  0
    6.1257   -3.7014   23.3454 C   0  0  0  0  0  0  0  0  0  0  0  0
    5.5221   -3.6445   22.0770 C   0  0  0  0  0  0  0  0  0  0  0  0
    5.7873   -4.6066   21.1568 N   0  0  0  0  0  0  0  0  0  0  0  0
    7.6206   -4.8510   24.9139 C   0  0  0  0  0  0  0  0  0  0  0  0
    9.0151   -5.0579   25.0190 C   0  0  0  0  0  0  0  0  0  0  0  0
    9.6044   -5.1386   26.2928 C   0  0  0  0  0  0  0  0  0  0  0  0
    8.8349   -5.0144   27.4042 N   0  0  0  0  0  0  0  0  0  0  0  0
    7.4944   -4.8131   27.3424 C   0  0  0  0  0  0  0  0  0  0  0  0
    6.8530   -4.7279   26.0939 C   0  0  0  0  0  0  0  0  0  0  0  0
  1  2  2  0  0  0
  1  6  1  0  0  0
  2  3  1  0  0  0
  3  4  2  0  0  0
  3  7  1  0  0  0
  4  5  1  0  0  0
  5  6  2  0  0  0
  7  8  2  0  0  0
  7 12  1  0  0  0
  8  9  1  0  0  0
  9 10  2  0  0  0
 10 11  1  0  0  0
 11 12  2  0  0  0
M  END
> <minimizedAffinity>
-4.49455

$$$$
Row0


 12 13  0  0  0  0  0  0  0  0999 V2000
    7.6388   -4.3968   27.2252 C   0  0  0  0  0  0  0  0  0  0  0  0
    7.0020   -4.3877   25.9712 C   0  0  0  0  0  0  0  0  0  0  0  0
    7.7243   -4.7964   24.8276 C   0  0  0  0  0  0  0  0  0  0  0  0
    9.0696   -5.2053   24.9734 C   0  0  0  0  0  0  0  0  0  0  0  0
    9.6559   -5.1980   26.2510 C   0  0  0  0  0  0  0  0  0  0  0  0
    8.9312   -4.7977   27.3268 N   0  0  0  0  0  0  0  0  0  0  0  0
    7.1100   -4.7964   23.5558 C   0  0  0  0  0  0  0  0  0  0  0  0
    7.3707   -5.8360   22.6341 C   0  0  0  0  0  0  0  0  0  0  0  0
    6.7478   -5.8104   21.3741 C   0  0  0  0  0  0  0  0  0  0  0  0
    5.9037   -4.7958   21.0563 N   0  0  0  0  0  0  0  0  0  0  0  0
    5.6279   -3.7825   21.9156 C   0  0  0  0  0  0  0  0  0  0  0  0
    6.2263   -3.7569   23.1880 C   0  0  0  0  0  0  0  0  0  0  0  0
  1  2  2  0  0  0
  1  6  1  0  0  0
  2  3  1  0  0  0
  3  4  2  0  0  0
  3  7  1  0  0  0
  4  5  1  0  0  0
  5  6  2  0  0  0
  7  8  2  0  0  0
  7 12  1  0  0  0
  8  9  1  0  0  0
  9 10  2  0  0  0
 10 11  1  0  0  0
 11 12  2  0  0  0
M  END
> <minimizedAffinity>
-4.49076

$$$$
Row0


 12 13  0  0  0  0  0  0  0  0999 V2000
    7.8810   -3.4901   22.6120 C   0  0  0  0  0  0  0  0  0  0  0  0
    8.9016   -2.5239   22.5580 C   0  0  0  0  0  0  0  0  0  0  0  0
    9.8716   -2.4869   23.5848 C   0  0  0  0  0  0  0  0  0  0  0  0
    9.7919   -3.4235   24.6406 C   0  0  0  0  0  0  0  0  0  0  0  0
    8.7525   -4.3700   24.6433 C   0  0  0  0  0  0  0  0  0  0  0  0
    7.8377   -4.3745   23.6403 N   0  0  0  0  0  0  0  0  0  0  0  0
   10.9070   -1.5267   23.5563 C   0  0  0  0  0  0  0  0  0  0  0  0
   11.8567   -1.5279   22.5091 C   0  0  0  0  0  0  0  0  0  0  0  0
   12.8785   -0.5625   22.5062 C   0  0  0  0  0  0  0  0  0  0  0  0
   12.9423    0.3593   23.5007 N   0  0  0  0  0  0  0  0  0  0  0  0
   12.0477    0.3927   24.5204 C   0  0  0  0  0  0  0  0  0  0  0  0
   11.0073   -0.5519   24.5743 C   0  0  0  0  0  0  0  0  0  0  0  0
  1  2  2  0  0  0
  1  6  1  0  0  0
  2  3  1  0  0  0
  3  4  2  0  0  0
  3  7  1  0  0  0
  4  5  1  0  0  0
  5  6  2  0  0  0
  7  8  2  0  0  0
  7 12  1  0  0  0
  8  9  1  0  0  0
  9 10  2  0  0  0
 10 11  1  0  0  0
 11 12  2  0  0  0
M  END
> <minimizedAffinity>
-4.47923

$$$$
Row0


 12 13  0  0  0  0  0  0  0  0999 V2000
   11.3549   -1.2200   22.8500 C   0  0  0  0  0  0  0  0  0  0  0  0
   10.1528   -1.4707   22.1645 C   0  0  0  0  0  0  0  0  0  0  0  0
    9.3279   -0.3836   21.7980 C   0  0  0  0  0  0  0  0  0  0  0  0
    9.7330    0.9296   22.1292 C   0  0  0  0  0  0  0  0  0  0  0  0
   10.9463    1.1233   22.8123 C   0  0  0  0  0  0  0  0  0  0  0  0
   11.7122    0.0544   23.1492 N   0  0  0  0  0  0  0  0  0  0  0  0
    8.1148   -0.6063   21.1098 C   0  0  0  0  0  0  0  0  0  0  0  0
    7.8497    0.0594   19.8912 C   0  0  0  0  0  0  0  0  0  0  0  0
    6.6333   -0.1787   19.2279 C   0  0  0  0  0  0  0  0  0  0  0  0
    5.7306   -1.0431   19.7579 N   0  0  0  0  0  0  0  0  0  0  0  0
    5.9513   -1.7015   20.9237 C   0  0  0  0  0  0  0  0  0  0  0  0
    7.1500   -1.4978   21.6303 C   0  0  0  0  0  0  0  0  0  0  0  0
  1  2  2  0  0  0
  1  6  1  0  0  0
  2  3  1  0  0  0
  3  4  2  0  0  0
  3  7  1  0  0  0
  4  5  1  0  0  0
  5  6  2  0  0  0
  7  8  2  0  0  0
  7 12  1  0  0  0
  8  9  1  0  0  0
  9 10  2  0  0  0
 10 11  1  0  0  0
 11 12  2  0  0  0
M  END
> <minimizedAffinity>
-4.43786

$$$$
Row0


 12 13  0  0  0  0  0  0  0  0999 V2000
    8.9626   -4.8186   26.9164 C   0  0  0  0  0  0  0  0  0  0  0  0
    8.5052   -4.5729   25.6093 C   0  0  0  0  0  0  0  0  0  0  0  0
    7.1897   -4.9494   25.2566 C   0  0  0  0  0  0  0  0  0  0  0  0
    6.3659   -5.5630   26.2277 C   0  0  0  0  0  0  0  0  0  0  0  0
    6.8729   -5.7820   27.5205 C   0  0  0  0  0  0  0  0  0  0  0  0
    8.1425   -5.4080   27.8226 N   0  0  0  0  0  0  0  0  0  0  0  0
    6.7045   -4.7155   23.9509 C   0  0  0  0  0  0  0  0  0  0  0  0
    5.7602   -3.6915   23.7102 C   0  0  0  0  0  0  0  0  0  0  0  0
    5.2920   -3.4815   22.4014 C   0  0  0  0  0  0  0  0  0  0  0  0
    5.7503   -4.2565   21.3854 N   0  0  0  0  0  0  0  0  0  0  0  0
    6.6578   -5.2468   21.5781 C   0  0  0  0  0  0  0  0  0  0  0  0
    7.1569   -5.5022   22.8678 C   0  0  0  0  0  0  0  0  0  0  0  0
  1  2  2  0  0  0
  1  6  1  0  0  0
  2  3  1  0  0  0
  3  4  2  0  0  0
  3  7  1  0  0  0
  4  5  1  0  0  0
  5  6  2  0  0  0
  7  8  2  0  0  0
  7 12  1  0  0  0
  8  9  1  0  0  0
  9 10  2  0  0  0
 10 11  1  0  0  0
 11 12  2  0  0  0
M  END
> <minimizedAffinity>
-4.36637

$$$$
Row1


 10 11  0  0  0  0  0  0  0  0999 V2000
   12.2907   -0.0054   23.2936 C   0  0  0  0  0  0  0  0  0  0  0  0
   11.7855   -1.1659   22.3906 C   0  0  0  0  0  0  0  0  0  0  0  0
   10.2472   -1.3807   22.3815 C   0  0  0  0  0  0  0  0  0  0  0  0
    9.5199   -0.3486   21.7056 N   0  0  0  0  0  0  0  0  0  0  0  0
    8.6984   -0.5336   20.7230 N   0  0  0  0  0  0  0  0  0  0  0  0
    8.2051    0.6087   20.3633 N   0  0  0  0  0  0  0  0  0  0  0  0
    8.6946    1.5518   21.0997 N   0  0  0  0  0  0  0  0  0  0  0  0
    9.5333    0.9687   21.9664 C   0  0  0  0  0  0  0  0  0  0  0  0
   10.3138    1.6643   23.0070 C   0  0  0  0  0  0  0  0  0  0  0  0
   11.8412    1.4208   22.8729 C   0  0  0  0  0  0  0  0  0  0  0  0
  1  2  1  0  0  0
  1 10  1  0  0  0
  2  3  1  0  0  0
  3  4  1  0  0  0
  4  5  1  0  0  0
  4  8  1  0  0  0
  5  6  2  0  0  0
  6  7  1  0  0  0
  7  8  2  0  0  0
  8  9  1  0  0  0
  9 10  1  0  0  0
M  END
> <minimizedAffinity>
-4.30545

$$$$
Row1


 10 11  0  0  0  0  0  0  0  0999 V2000
   10.7244   -1.9898   23.9939 C   0  0  0  0  0  0  0  0  0  0  0  0
   11.0838   -0.5167   24.3373 C   0  0  0  0  0  0  0  0  0  0  0  0
   11.4214    0.3870   23.1200 C   0  0  0  0  0  0  0  0  0  0  0  0
   10.2908    0.7047   22.3002 N   0  0  0  0  0  0  0  0  0  0  0  0
    9.8970    1.9004   22.0006 N   0  0  0  0  0  0  0  0  0  0  0  0
    8.8583    1.8231   21.2307 N   0  0  0  0  0  0  0  0  0  0  0  0
    8.5586    0.5837   21.0179 N   0  0  0  0  0  0  0  0  0  0  0  0
    9.4581   -0.1510   21.6854 C   0  0  0  0  0  0  0  0  0  0  0  0
    9.5070   -1.6249   21.7217 C   0  0  0  0  0  0  0  0  0  0  0  0
    9.4261   -2.1913   23.1649 C   0  0  0  0  0  0  0  0  0  0  0  0
  1  2  1  0  0  0
  1 10  1  0  0  0
  2  3  1  0  0  0
  3  4  1  0  0  0
  4  5  1  0  0  0
  4  8  1  0  0  0
  5  6  2  0  0  0
  6  7  1  0  0  0
  7  8  2  0  0  0
  8  9  1  0  0  0
  9 10  1  0  0  0
M  END
> <minimizedAffinity>
-4.22406

$$$$
Row1


 10 11  0  0  0  0  0  0  0  0999 V2000
    7.6838    0.2934   22.3096 C   0  0  0  0  0  0  0  0  0  0  0  0
    7.6348   -1.0683   21.5608 C   0  0  0  0  0  0  0  0  0  0  0  0
    6.2855   -1.3971   20.8653 C   0  0  0  0  0  0  0  0  0  0  0  0
    6.0139   -0.5919   19.7125 N   0  0  0  0  0  0  0  0  0  0  0  0
    5.7629   -1.0447   18.5265 N   0  0  0  0  0  0  0  0  0  0  0  0
    5.5476   -0.0467   17.7296 N   0  0  0  0  0  0  0  0  0  0  0  0
    5.6552    1.0665   18.3780 N   0  0  0  0  0  0  0  0  0  0  0  0
    5.9487    0.7478   19.6456 C   0  0  0  0  0  0  0  0  0  0  0  0
    6.1549    1.7072   20.7470 C   0  0  0  0  0  0  0  0  0  0  0  0
    7.5468    1.5582   21.4182 C   0  0  0  0  0  0  0  0  0  0  0  0
  1  2  1  0  0  0
  1 10  1  0  0  0
  2  3  1  0  0  0
  3  4  1  0  0  0
  4  5  1  0  0  0
  4  8  1  0  0  0
  5  6  2  0  0  0
  6  7  1  0  0  0
  7  8  2  0  0  0
  8  9  1  0  0  0
  9 10  1  0  0  0
M  END
> <minimizedAffinity>
-4.03980

$$$$
Row1


 10 11  0  0  0  0  0  0  0  0999 V2000
    8.6556   -2.1832   22.7794 C   0  0  0  0  0  0  0  0  0  0  0  0
    7.2992   -2.7061   22.2278 C   0  0  0  0  0  0  0  0  0  0  0  0
    6.2782   -1.6082   21.8222 C   0  0  0  0  0  0  0  0  0  0  0  0
    6.6413   -0.8840   20.6412 N   0  0  0  0  0  0  0  0  0  0  0  0
    5.9066   -0.7631   19.5828 N   0  0  0  0  0  0  0  0  0  0  0  0
    6.5315   -0.0317   18.7155 N   0  0  0  0  0  0  0  0  0  0  0  0
    7.6774    0.3329   19.1902 N   0  0  0  0  0  0  0  0  0  0  0  0
    7.7716   -0.1939   20.4183 C   0  0  0  0  0  0  0  0  0  0  0  0
    8.9133   -0.0306   21.3379 C   0  0  0  0  0  0  0  0  0  0  0  0
    9.5307   -1.3870   21.7728 C   0  0  0  0  0  0  0  0  0  0  0  0
  1  2  1  0  0  0
  1 10  1  0  0  0
  2  3  1  0  0  0
  3  4  1  0  0  0
  4  5  1  0  0  0
  4  8  1  0  0  0
  5  6  2  0  0  0
  6  7  1  0  0  0
  7  8  2  0  0  0
  8  9  1  0  0  0
  9 10  1  0  0  0
M  END
> <minimizedAffinity>
-4.03061

$$$$
Row1


 10 11  0  0  0  0  0  0  0  0999 V2000
   11.4476    2.0967   22.6337 C   0  0  0  0  0  0  0  0  0  0  0  0
    9.9291    1.7698   22.5655 C   0  0  0  0  0  0  0  0  0  0  0  0
    9.5634    0.4607   21.8138 C   0  0  0  0  0  0  0  0  0  0  0  0
    9.9339   -0.7337   22.5118 N   0  0  0  0  0  0  0  0  0  0  0  0
    9.1273   -1.6940   22.8308 N   0  0  0  0  0  0  0  0  0  0  0  0
    9.7951   -2.6234   23.4372 N   0  0  0  0  0  0  0  0  0  0  0  0
   11.0401   -2.2863   23.5244 N   0  0  0  0  0  0  0  0  0  0  0  0
   11.1570   -1.0870   22.9391 C   0  0  0  0  0  0  0  0  0  0  0  0
   12.4078   -0.3176   22.7993 C   0  0  0  0  0  0  0  0  0  0  0  0
   12.3175    1.0936   23.4401 C   0  0  0  0  0  0  0  0  0  0  0  0
  1  2  1  0  0  0
  1 10  1  0  0  0
  2  3  1  0  0  0
  3  4  1  0  0  0
  4  5  1  0  0  0
  4  8  1  0  0  0
  5  6  2  0  0  0
  6  7  1  0  0  0
  7  8  2  0  0  0
  8  9  1  0  0  0
  9 10  1  0  0  0
M  END
> <minimizedAffinity>
-3.91558

$$$$
Row1


 10 11  0  0  0  0  0  0  0  0999 V2000
    7.3610   -5.0367   23.9167 C   0  0  0  0  0  0  0  0  0  0  0  0
    7.3425   -4.3549   22.5196 C   0  0  0  0  0  0  0  0  0  0  0  0
    7.6469   -2.8318   22.5183 C   0  0  0  0  0  0  0  0  0  0  0  0
    9.0111   -2.5112   22.8140 N   0  0  0  0  0  0  0  0  0  0  0  0
    9.7935   -1.8066   22.0618 N   0  0  0  0  0  0  0  0  0  0  0  0
   10.9486   -1.6978   22.6376 N   0  0  0  0  0  0  0  0  0  0  0  0
   10.9392   -2.3267   23.7670 N   0  0  0  0  0  0  0  0  0  0  0  0
    9.7147   -2.8518   23.9060 C   0  0  0  0  0  0  0  0  0  0  0  0
    9.2476   -3.6501   25.0552 C   0  0  0  0  0  0  0  0  0  0  0  0
    8.7359   -5.0556   24.6395 C   0  0  0  0  0  0  0  0  0  0  0  0
  1  2  1  0  0  0
  1 10  1  0  0  0
  2  3  1  0  0  0
  3  4  1  0  0  0
  4  5  1  0  0  0
  4  8  1  0  0  0
  5  6  2  0  0  0
  6  7  1  0  0  0
  7  8  2  0  0  0
  8  9  1  0  0  0
  9 10  1  0  0  0
M  END
> <minimizedAffinity>
-3.90202

$$$$
Row1


 10 11  0  0  0  0  0  0  0  0999 V2000
    9.3410   -0.3121   21.5757 C   0  0  0  0  0  0  0  0  0  0  0  0
    9.6253   -1.7587   22.0696 C   0  0  0  0  0  0  0  0  0  0  0  0
    8.5115   -2.3935   22.9464 C   0  0  0  0  0  0  0  0  0  0  0  0
    7.3194   -2.7226   22.2240 N   0  0  0  0  0  0  0  0  0  0  0  0
    6.7727   -3.8946   22.1777 N   0  0  0  0  0  0  0  0  0  0  0  0
    5.7022   -3.8334   21.4512 N   0  0  0  0  0  0  0  0  0  0  0  0
    5.5347   -2.6287   21.0134 N   0  0  0  0  0  0  0  0  0  0  0  0
    6.5500   -1.8988   21.4940 C   0  0  0  0  0  0  0  0  0  0  0  0
    6.7615   -0.4586   21.2548 C   0  0  0  0  0  0  0  0  0  0  0  0
    8.1384   -0.1555   20.6049 C   0  0  0  0  0  0  0  0  0  0  0  0
  1  2  1  0  0  0
  1 10  1  0  0  0
  2  3  1  0  0  0
  3  4  1  0  0  0
  4  5  1  0  0  0
  4  8  1  0  0  0
  5  6  2  0  0  0
  6  7  1  0  0  0
  7  8  2  0  0  0
  8  9  1  0  0  0
  9 10  1  0  0  0
M  END
> <minimizedAffinity>
-3.89218

$$$$
Row1


 10 11  0  0  0  0  0  0  0  0999 V2000
    5.8620   -0.3803   19.5356 C   0  0  0  0  0  0  0  0  0  0  0  0
    7.2939    0.1841   19.3156 C   0  0  0  0  0  0  0  0  0  0  0  0
    8.0792    0.5294   20.6104 C   0  0  0  0  0  0  0  0  0  0  0  0
    8.4931   -0.6168   21.3627 N   0  0  0  0  0  0  0  0  0  0  0  0
    9.7110   -0.8840   21.7088 N   0  0  0  0  0  0  0  0  0  0  0  0
    9.7247   -1.9838   22.3929 N   0  0  0  0  0  0  0  0  0  0  0  0
    8.5238   -2.4498   22.5024 N   0  0  0  0  0  0  0  0  0  0  0  0
    7.7182   -1.5957   21.8575 C   0  0  0  0  0  0  0  0  0  0  0  0
    6.2543   -1.7254   21.7299 C   0  0  0  0  0  0  0  0  0  0  0  0
    5.7826   -1.7569   20.2512 C   0  0  0  0  0  0  0  0  0  0  0  0
  1  2  1  0  0  0
  1 10  1  0  0  0
  2  3  1  0  0  0
  3  4  1  0  0  0
  4  5  1  0  0  0
  4  8  1  0  0  0
  5  6  2  0  0  0
  6  7  1  0  0  0
  7  8  2  0  0  0
  8  9  1  0  0  0
  9 10  1  0  0  0
M  END
> <minimizedAffinity>
-3.86665

$$$$
Row1


 10 11  0  0  0  0  0  0  0  0999 V2000
    7.3238   -2.4797   22.1197 C   0  0  0  0  0  0  0  0  0  0  0  0
    8.5942   -2.2596   22.9885 C   0  0  0  0  0  0  0  0  0  0  0  0
    9.7893   -1.5853   22.2609 C   0  0  0  0  0  0  0  0  0  0  0  0
    9.5813   -0.2004   21.9611 N   0  0  0  0  0  0  0  0  0  0  0  0
   10.3562    0.7687   22.3285 N   0  0  0  0  0  0  0  0  0  0  0  0
    9.8820    1.8850   21.8740 N   0  0  0  0  0  0  0  0  0  0  0  0
    8.7961    1.6641   21.2082 N   0  0  0  0  0  0  0  0  0  0  0  0
    8.5831    0.3421   21.2449 C   0  0  0  0  0  0  0  0  0  0  0  0
    7.4561   -0.3646   20.6074 C   0  0  0  0  0  0  0  0  0  0  0  0
    6.6170   -1.1898   21.6199 C   0  0  0  0  0  0  0  0  0  0  0  0
  1  2  1  0  0  0
  1 10  1  0  0  0
  2  3  1  0  0  0
  3  4  1  0  0  0
  4  5  1  0  0  0
  4  8  1  0  0  0
  5  6  2  0  0  0
  6  7  1  0  0  0
  7  8  2  0  0  0
  8  9  1  0  0  0
  9 10  1  0  0  0
M  END
> <minimizedAffinity>
-3.81769

$$$$
Row2


  8  8  0  0  0  0  0  0  0  0999 V2000
   11.9329   -1.3500   22.3610 C   0  0  0  0  0  0  0  0  0  0  0  0
   13.0412   -0.3372   22.7507 C   0  0  0  0  0  0  0  0  0  0  0  0
   12.4747    0.7884   23.6524 C   0  0  0  0  0  0  0  0  0  0  0  0
   11.7709    0.2256   24.8275 N   0  0  0  0  0  0  0  0  0  0  0  0
   10.6570   -0.6881   24.4813 C   0  0  0  0  0  0  0  0  0  0  0  0
   11.1437   -1.8627   23.5952 C   0  0  0  0  0  0  0  0  0  0  0  0
   11.3934    0.9984   25.3759 H   0  0  0  0  0  0  0  0  0  0  0  0
   12.4550   -0.3256   25.3457 H   0  0  0  0  0  0  0  0  0  0  0  0
  1  2  1  0  0  0
  1  6  1  0  0  0
  2  3  1  0  0  0
  3  4  1  0  0  0
  4  5  1  0  0  0
  4  7  1  0  0  0
  4  8  1  0  0  0
  5  6  1  0  0  0
M  CHG 1   4   1
M  END
> <minimizedAffinity>
-3.12268

$$$$
Row2


  8  8  0  0  0  0  0  0  0  0999 V2000
    6.9269   -0.0841   18.7606 C   0  0  0  0  0  0  0  0  0  0  0  0
    5.9156    0.9010   18.1179 C   0  0  0  0  0  0  0  0  0  0  0  0
    4.8695    1.3805   19.1555 C   0  0  0  0  0  0  0  0  0  0  0  0
    5.5295    1.9374   20.3585 N   0  0  0  0  0  0  0  0  0  0  0  0
    6.4451    0.9895   21.0358 C   0  0  0  0  0  0  0  0  0  0  0  0
    7.5432    0.4763   20.0702 C   0  0  0  0  0  0  0  0  0  0  0  0
    4.8061    2.2144   21.0221 H   0  0  0  0  0  0  0  0  0  0  0  0
    6.0976    2.7248   20.0461 H   0  0  0  0  0  0  0  0  0  0  0  0
  1  2  1  0  0  0
  1  6  1  0  0  0
  2  3  1  0  0  0
  3  4  1  0  0  0
  4  5  1  0  0  0
  4  7  1  0  0  0
  4  8  1  0  0  0
  5  6  1  0  0  0
M  CHG 1   4   1
M  END
> <minimizedAffinity>
-3.07325

$$$$
Row2


  8  8  0  0  0  0  0  0  0  0999 V2000
    5.8552    1.6265   20.3848 C   0  0  0  0  0  0  0  0  0  0  0  0
    4.9841    1.3862   19.1240 C   0  0  0  0  0  0  0  0  0  0  0  0
    5.8589    0.9757   17.9129 C   0  0  0  0  0  0  0  0  0  0  0  0
    6.7200   -0.1821   18.2461 N   0  0  0  0  0  0  0  0  0  0  0  0
    7.6176    0.0485   19.4022 C   0  0  0  0  0  0  0  0  0  0  0  0
    6.8175    0.4425   20.6696 C   0  0  0  0  0  0  0  0  0  0  0  0
    7.2946   -0.3994   17.4319 H   0  0  0  0  0  0  0  0  0  0  0  0
    6.0980   -0.9485   18.5032 H   0  0  0  0  0  0  0  0  0  0  0  0
  1  2  1  0  0  0
  1  6  1  0  0  0
  2  3  1  0  0  0
  3  4  1  0  0  0
  4  5  1  0  0  0
  4  7  1  0  0  0
  4  8  1  0  0  0
  5  6  1  0  0  0
M  CHG 1   4   1
M  END
> <minimizedAffinity>
-3.05746

$$$$
Row2


  8  8  0  0  0  0  0  0  0  0999 V2000
   11.9730    0.1054   24.4558 C   0  0  0  0  0  0  0  0  0  0  0  0
   12.8437    0.4612   23.2223 C   0  0  0  0  0  0  0  0  0  0  0  0
   13.1918   -0.8066   22.4023 C   0  0  0  0  0  0  0  0  0  0  0  0
   11.9692   -1.5617   22.0447 N   0  0  0  0  0  0  0  0  0  0  0  0
   11.1571   -1.9796   23.2114 C   0  0  0  0  0  0  0  0  0  0  0  0
   10.7434   -0.7629   24.0775 C   0  0  0  0  0  0  0  0  0  0  0  0
   12.2473   -2.3979   21.5311 H   0  0  0  0  0  0  0  0  0  0  0  0
   11.3871   -0.9353   21.4887 H   0  0  0  0  0  0  0  0  0  0  0  0
  1  2  1  0  0  0
  1  6  1  0  0  0
  2  3  1  0  0  0
  3  4  1  0  0  0
  4  5  1  0  0  0
  4  7  1  0  0  0
  4  8  1  0  0  0
  5  6  1  0  0  0
M  CHG 1   4   1
M  END
> <minimizedAffinity>
-3.05194

$$$$
Row2


  8  8  0  0  0  0  0  0  0  0999 V2000
    5.7307    1.4263   20.3979 C   0  0  0  0  0  0  0  0  0  0  0  0
    7.2578    1.2141   20.5685 C   0  0  0  0  0  0  0  0  0  0  0  0
    7.7341   -0.0446   19.8008 C   0  0  0  0  0  0  0  0  0  0  0  0
    7.3159    0.0076   18.3812 N   0  0  0  0  0  0  0  0  0  0  0  0
    5.8522    0.1344   18.1893 C   0  0  0  0  0  0  0  0  0  0  0  0
    5.2940    1.3883   18.9090 C   0  0  0  0  0  0  0  0  0  0  0  0
    7.6266   -0.8493   17.9235 H   0  0  0  0  0  0  0  0  0  0  0  0
    7.7402    0.8433   17.9787 H   0  0  0  0  0  0  0  0  0  0  0  0
  1  2  1  0  0  0
  1  6  1  0  0  0
  2  3  1  0  0  0
  3  4  1  0  0  0
  4  5  1  0  0  0
  4  7  1  0  0  0
  4  8  1  0  0  0
  5  6  1  0  0  0
M  CHG 1   4   1
M  END
> <minimizedAffinity>
-2.97631

$$$$
Row2


  8  8  0  0  0  0  0  0  0  0999 V2000
    7.3839    0.1500   18.9091 C   0  0  0  0  0  0  0  0  0  0  0  0
    7.4107    0.2715   20.4553 C   0  0  0  0  0  0  0  0  0  0  0  0
    6.5736    1.4847   20.9329 C   0  0  0  0  0  0  0  0  0  0  0  0
    5.1993    1.4326   20.3839 N   0  0  0  0  0  0  0  0  0  0  0  0
    5.1436    1.3920   18.9038 C   0  0  0  0  0  0  0  0  0  0  0  0
    5.9402    0.1878   18.3407 C   0  0  0  0  0  0  0  0  0  0  0  0
    4.6953    2.2605   20.7014 H   0  0  0  0  0  0  0  0  0  0  0  0
    4.7799    0.5654   20.7192 H   0  0  0  0  0  0  0  0  0  0  0  0
  1  2  1  0  0  0
  1  6  1  0  0  0
  2  3  1  0  0  0
  3  4  1  0  0  0
  4  5  1  0  0  0
  4  7  1  0  0  0
  4  8  1  0  0  0
  5  6  1  0  0  0
M  CHG 1   4   1
M  END
> <minimizedAffinity>
-2.93622

$$$$
Row2


  8  8  0  0  0  0  0  0  0  0999 V2000
   10.2635    0.3473   22.5482 C   0  0  0  0  0  0  0  0  0  0  0  0
   11.2958   -0.1685   23.5848 C   0  0  0  0  0  0  0  0  0  0  0  0
   12.6369    0.5980   23.4637 C   0  0  0  0  0  0  0  0  0  0  0  0
   12.4231    2.0611   23.5443 N   0  0  0  0  0  0  0  0  0  0  0  0
   11.4979    2.5916   22.5157 C   0  0  0  0  0  0  0  0  0  0  0  0
   10.1166    1.8921   22.5826 C   0  0  0  0  0  0  0  0  0  0  0  0
   13.3253    2.5238   23.4337 H   0  0  0  0  0  0  0  0  0  0  0  0
   11.9950    2.2476   24.4511 H   0  0  0  0  0  0  0  0  0  0  0  0
  1  2  1  0  0  0
  1  6  1  0  0  0
  2  3  1  0  0  0
  3  4  1  0  0  0
  4  5  1  0  0  0
  4  7  1  0  0  0
  4  8  1  0  0  0
  5  6  1  0  0  0
M  CHG 1   4   1
M  END
> <minimizedAffinity>
-2.90352

$$$$
Row2


  8  8  0  0  0  0  0  0  0  0999 V2000
   12.3164    0.6781   23.8349 C   0  0  0  0  0  0  0  0  0  0  0  0
   11.3817   -0.2362   24.6694 C   0  0  0  0  0  0  0  0  0  0  0  0
   10.6909   -1.2936   23.7720 C   0  0  0  0  0  0  0  0  0  0  0  0
   11.6866   -2.0554   22.9839 N   0  0  0  0  0  0  0  0  0  0  0  0
   12.5437   -1.2106   22.1195 C   0  0  0  0  0  0  0  0  0  0  0  0
   13.2942   -0.1351   22.9452 C   0  0  0  0  0  0  0  0  0  0  0  0
   11.1873   -2.7184   22.3910 H   0  0  0  0  0  0  0  0  0  0  0  0
   12.3039   -2.5152   23.6531 H   0  0  0  0  0  0  0  0  0  0  0  0
  1  2  1  0  0  0
  1  6  1  0  0  0
  2  3  1  0  0  0
  3  4  1  0  0  0
  4  5  1  0  0  0
  4  7  1  0  0  0
  4  8  1  0  0  0
  5  6  1  0  0  0
M  CHG 1   4   1
M  END
> <minimizedAffinity>
-2.85721

$$$$
Row2


  8  8  0  0  0  0  0  0  0  0999 V2000
    7.4139    0.1823   18.9155 C   0  0  0  0  0  0  0  0  0  0  0  0
    5.9335   -0.2597   18.7778 C   0  0  0  0  0  0  0  0  0  0  0  0
    5.6097   -1.4292   19.7414 C   0  0  0  0  0  0  0  0  0  0  0  0
    5.9815   -1.0901   21.1341 N   0  0  0  0  0  0  0  0  0  0  0  0
    7.4100   -0.7366   21.3066 C   0  0  0  0  0  0  0  0  0  0  0  0
    7.8142    0.4470   20.3915 C   0  0  0  0  0  0  0  0  0  0  0  0
    5.7763   -1.8949   21.7260 H   0  0  0  0  0  0  0  0  0  0  0  0
    5.4398   -0.2652   21.3920 H   0  0  0  0  0  0  0  0  0  0  0  0
  1  2  1  0  0  0
  1  6  1  0  0  0
  2  3  1  0  0  0
  3  4  1  0  0  0
  4  5  1  0  0  0
  4  7  1  0  0  0
  4  8  1  0  0  0
  5  6  1  0  0  0
M  CHG 1   4   1
M  END
> <minimizedAffinity>
-2.85468

$$$$
Row3


 19 22  0  0  0  0  0  0  0  0999 V2000
   12.6165    0.7452   23.2293 C   0  0  0  0  0  0  0  0  0  0  0  0
   12.9005   -0.6082   22.5324 C   0  0  0  0  0  0  0  0  0  0  0  0
   11.8502   -1.6790   22.9209 C   0  0  0  0  0  0  0  0  0  0  0  0
   10.4466   -1.2022   22.6900 N   0  0  0  0  0  0  0  0  0  0  0  0
    9.4426   -2.2891   22.9532 C   0  0  0  0  0  0  0  0  0  0  0  0
    7.9546   -1.8308   22.8273 C   0  0  0  0  0  0  0  0  0  0  0  0
    7.7415   -0.6061   23.7596 C   0  0  0  0  0  0  0  0  0  0  0  0
    8.6423    0.5451   23.2354 C   0  0  0  0  0  0  0  0  0  0  0  0
    8.1763    0.9138   21.7866 C   0  0  0  0  0  0  0  0  0  0  0  0
    8.2313   -0.2497   20.8405 N   0  0  0  0  0  0  0  0  0  0  0  0
    7.8730    0.0766   19.4220 C   0  0  0  0  0  0  0  0  0  0  0  0
    6.3452    0.1438   19.1611 C   0  0  0  0  0  0  0  0  0  0  0  0
    5.6379   -1.1388   19.6658 C   0  0  0  0  0  0  0  0  0  0  0  0
    6.0010   -1.4424   21.1403 C   0  0  0  0  0  0  0  0  0  0  0  0
    7.5501   -1.4959   21.3473 C   0  0  0  0  0  0  0  0  0  0  0  0
   10.1425    0.0974   23.3951 C   0  0  0  0  0  0  0  0  0  0  0  0
   11.1588    1.2037   22.9739 C   0  0  0  0  0  0  0  0  0  0  0  0
   10.3643   -0.9780   21.6984 H   0  0  0  0  0  0  0  0  0  0  0  0
    9.2252   -0.4773   20.8127 H   0  0  0  0  0  0  0  0  0  0  0  0
  1  2  1  0  0  0
  1 17  1  0  0  0
  2  3  1  0  0  0
  3  4  1  0  0  0
  4  5  1  0  0  0
  4 16  1  0  0  0
  4 18  1  0  0  0
  5  6  1  0  0  0
  6  7  1  0  0  0
  6 15  1  0  0  0
  7  8  1  0  0  0
  8  9  1  0  0  0
  8 16  1  0  0  0
  9 10  1  0  0  0
 10 11  1  0  0  0
 10 15  1  0  0  0
 10 19  1  0  0  0
 11 12  1  0  0  0
 12 13  1  0  0  0
 13 14  1  0  0  0
 14 15  1  0  0  0
 16 17  1  0  0  0
M  CHG 1   4   1
M  CHG 1  10   1
M  END
> <minimizedAffinity>
-5.68386

$$$$
Row3


 19 22  0  0  0  0  0  0  0  0999 V2000
   10.4051   -2.5694   23.9992 C   0  0  0  0  0  0  0  0  0  0  0  0
    9.0996   -2.6528   24.8278 C   0  0  0  0  0  0  0  0  0  0  0  0
    8.4592   -1.2554   25.0217 C   0  0  0  0  0  0  0  0  0  0  0  0
    8.2625   -0.5393   23.7181 N   0  0  0  0  0  0  0  0  0  0  0  0
    7.5305    0.7599   23.9053 C   0  0  0  0  0  0  0  0  0  0  0  0
    7.3795    1.6039   22.5997 C   0  0  0  0  0  0  0  0  0  0  0  0
    8.7933    1.8171   21.9912 C   0  0  0  0  0  0  0  0  0  0  0  0
    9.3497    0.4221   21.5969 C   0  0  0  0  0  0  0  0  0  0  0  0
    8.4080   -0.1934   20.5076 C   0  0  0  0  0  0  0  0  0  0  0  0
    6.9857   -0.3220   20.9689 N   0  0  0  0  0  0  0  0  0  0  0  0
    6.0646   -0.9831   19.9883 C   0  0  0  0  0  0  0  0  0  0  0  0
    5.5567   -0.0365   18.8692 C   0  0  0  0  0  0  0  0  0  0  0  0
    4.9478    1.2561   19.4680 C   0  0  0  0  0  0  0  0  0  0  0  0
    5.9257    1.9366   20.4574 C   0  0  0  0  0  0  0  0  0  0  0  0
    6.4077    0.9387   21.5607 C   0  0  0  0  0  0  0  0  0  0  0  0
    9.5352   -0.4160   22.9159 C   0  0  0  0  0  0  0  0  0  0  0  0
   10.1661   -1.8206   22.6641 C   0  0  0  0  0  0  0  0  0  0  0  0
    7.6555   -1.1232   23.1427 H   0  0  0  0  0  0  0  0  0  0  0  0
    7.0541   -0.9788   21.7462 H   0  0  0  0  0  0  0  0  0  0  0  0
  1  2  1  0  0  0
  1 17  1  0  0  0
  2  3  1  0  0  0
  3  4  1  0  0  0
  4  5  1  0  0  0
  4 16  1  0  0  0
  4 18  1  0  0  0
  5  6  1  0  0  0
  6  7  1  0  0  0
  6 15  1  0  0  0
  7  8  1  0  0  0
  8  9  1  0  0  0
  8 16  1  0  0  0
  9 10  1  0  0  0
 10 11  1  0  0  0
 10 15  1  0  0  0
 10 19  1  0  0  0
 11 12  1  0  0  0
 12 13  1  0  0  0
 13 14  1  0  0  0
 14 15  1  0  0  0
 16 17  1  0  0  0
M  CHG 1   4   1
M  CHG 1  10   1
M  END
> <minimizedAffinity>
-5.59047

$$$$
Row3


 19 22  0  0  0  0  0  0  0  0999 V2000
    8.3654   -5.1977   25.9313 C   0  0  0  0  0  0  0  0  0  0  0  0
    7.4735   -4.1974   26.7073 C   0  0  0  0  0  0  0  0  0  0  0  0
    8.2002   -2.8486   26.9381 C   0  0  0  0  0  0  0  0  0  0  0  0
    8.7304   -2.2677   25.6605 N   0  0  0  0  0  0  0  0  0  0  0  0
    9.3241   -0.9041   25.8770 C   0  0  0  0  0  0  0  0  0  0  0  0
    9.9842   -0.2835   24.6046 C   0  0  0  0  0  0  0  0  0  0  0  0
   11.0320   -1.2924   24.0580 C   0  0  0  0  0  0  0  0  0  0  0  0
   10.2685   -2.5730   23.6241 C   0  0  0  0  0  0  0  0  0  0  0  0
    9.2759   -2.1888   22.4755 C   0  0  0  0  0  0  0  0  0  0  0  0
    8.2992   -1.1231   22.8785 N   0  0  0  0  0  0  0  0  0  0  0  0
    7.2762   -0.7824   21.8372 C   0  0  0  0  0  0  0  0  0  0  0  0
    7.7951    0.1865   20.7423 C   0  0  0  0  0  0  0  0  0  0  0  0
    8.4336    1.4488   21.3740 C   0  0  0  0  0  0  0  0  0  0  0  0
    9.5055    1.0740   22.4271 C   0  0  0  0  0  0  0  0  0  0  0  0
    8.9310    0.0953   23.5029 C   0  0  0  0  0  0  0  0  0  0  0  0
    9.6330   -3.2177   24.9114 C   0  0  0  0  0  0  0  0  0  0  0  0
    8.8983   -4.5633   24.6222 C   0  0  0  0  0  0  0  0  0  0  0  0
    7.9335   -2.1314   25.0385 H   0  0  0  0  0  0  0  0  0  0  0  0
    7.7698   -1.5675   23.6286 H   0  0  0  0  0  0  0  0  0  0  0  0
  1  2  1  0  0  0
  1 17  1  0  0  0
  2  3  1  0  0  0
  3  4  1  0  0  0
  4  5  1  0  0  0
  4 16  1  0  0  0
  4 18  1  0  0  0
  5  6  1  0  0  0
  6  7  1  0  0  0
  6 15  1  0  0  0
  7  8  1  0  0  0
  8  9  1  0  0  0
  8 16  1  0  0  0
  9 10  1  0  0  0
 10 11  1  0  0  0
 10 15  1  0  0  0
 10 19  1  0  0  0
 11 12  1  0  0  0
 12 13  1  0  0  0
 13 14  1  0  0  0
 14 15  1  0  0  0
 16 17  1  0  0  0
M  CHG 1   4   1
M  CHG 1  10   1
M  END
> <minimizedAffinity>
-5.47259

$$$$
Row3


 19 22  0  0  0  0  0  0  0  0999 V2000
    7.5023    4.5231   24.9012 C   0  0  0  0  0  0  0  0  0  0  0  0
    7.4194    3.4876   26.0496 C   0  0  0  0  0  0  0  0  0  0  0  0
    7.0913    2.0709   25.5151 C   0  0  0  0  0  0  0  0  0  0  0  0
    8.0359    1.6447   24.4302 N   0  0  0  0  0  0  0  0  0  0  0  0
    7.7860    0.2250   24.0050 C   0  0  0  0  0  0  0  0  0  0  0  0
    8.6706   -0.2504   22.8086 C   0  0  0  0  0  0  0  0  0  0  0  0
    8.4796    0.7490   21.6342 C   0  0  0  0  0  0  0  0  0  0  0  0
    9.0116    2.1306   22.1025 C   0  0  0  0  0  0  0  0  0  0  0  0
   10.5395    1.9894   22.4149 C   0  0  0  0  0  0  0  0  0  0  0  0
   10.8299    0.9497   23.4574 N   0  0  0  0  0  0  0  0  0  0  0  0
   12.2726    0.8380   23.8486 C   0  0  0  0  0  0  0  0  0  0  0  0
   13.1274    0.0033   22.8590 C   0  0  0  0  0  0  0  0  0  0  0  0
   12.4811   -1.3798   22.5956 C   0  0  0  0  0  0  0  0  0  0  0  0
   10.9994   -1.2399   22.1676 C   0  0  0  0  0  0  0  0  0  0  0  0
   10.1860   -0.3887   23.1968 C   0  0  0  0  0  0  0  0  0  0  0  0
    8.0986    2.6259   23.2848 C   0  0  0  0  0  0  0  0  0  0  0  0
    8.4814    4.0485   23.7982 C   0  0  0  0  0  0  0  0  0  0  0  0
    8.9754    1.6578   24.8270 H   0  0  0  0  0  0  0  0  0  0  0  0
   10.3626    1.3175   24.2861 H   0  0  0  0  0  0  0  0  0  0  0  0
  1  2  1  0  0  0
  1 17  1  0  0  0
  2  3  1  0  0  0
  3  4  1  0  0  0
  4  5  1  0  0  0
  4 16  1  0  0  0
  4 18  1  0  0  0
  5  6  1  0  0  0
  6  7  1  0  0  0
  6 15  1  0  0  0
  7  8  1  0  0  0
  8  9  1  0  0  0
  8 16  1  0  0  0
  9 10  1  0  0  0
 10 11  1  0  0  0
 10 15  1  0  0  0
 10 19  1  0  0  0
 11 12  1  0  0  0
 12 13  1  0  0  0
 13 14  1  0  0  0
 14 15  1  0  0  0
 16 17  1  0  0  0
M  CHG 1   4   1
M  CHG 1  10   1
M  END
> <minimizedAffinity>
-5.40322

$$$$
Row3


 19 22  0  0  0  0  0  0  0  0999 V2000
    9.2156   -4.4573   26.2969 C   0  0  0  0  0  0  0  0  0  0  0  0
    8.1889   -3.5451   27.0122 C   0  0  0  0  0  0  0  0  0  0  0  0
    8.5641   -2.0484   26.8722 C   0  0  0  0  0  0  0  0  0  0  0  0
    8.7792   -1.6522   25.4414 N   0  0  0  0  0  0  0  0  0  0  0  0
    9.0214   -0.1751   25.3065 C   0  0  0  0  0  0  0  0  0  0  0  0
    9.3516    0.2897   23.8522 C   0  0  0  0  0  0  0  0  0  0  0  0
   10.5560   -0.5451   23.3355 C   0  0  0  0  0  0  0  0  0  0  0  0
   10.1052   -2.0297   23.2721 C   0  0  0  0  0  0  0  0  0  0  0  0
    8.9244   -2.1422   22.2496 C   0  0  0  0  0  0  0  0  0  0  0  0
    7.7574   -1.2683   22.6051 N   0  0  0  0  0  0  0  0  0  0  0  0
    6.5708   -1.4058   21.6996 C   0  0  0  0  0  0  0  0  0  0  0  0
    6.6956   -0.6045   20.3770 C   0  0  0  0  0  0  0  0  0  0  0  0
    7.0536    0.8768   20.6559 C   0  0  0  0  0  0  0  0  0  0  0  0
    8.2972    0.9958   21.5712 C   0  0  0  0  0  0  0  0  0  0  0  0
    8.1194    0.1683   22.8861 C   0  0  0  0  0  0  0  0  0  0  0  0
    9.8064   -2.5085   24.7412 C   0  0  0  0  0  0  0  0  0  0  0  0
    9.4162   -4.0167   24.8252 C   0  0  0  0  0  0  0  0  0  0  0  0
    7.9096   -1.8408   24.9429 H   0  0  0  0  0  0  0  0  0  0  0  0
    7.4485   -1.6490   23.4995 H   0  0  0  0  0  0  0  0  0  0  0  0
  1  2  1  0  0  0
  1 17  1  0  0  0
  2  3  1  0  0  0
  3  4  1  0  0  0
  4  5  1  0  0  0
  4 16  1  0  0  0
  4 18  1  0  0  0
  5  6  1  0  0  0
  6  7  1  0  0  0
  6 15  1  0  0  0
  7  8  1  0  0  0
  8  9  1  0  0  0
  8 16  1  0  0  0
  9 10  1  0  0  0
 10 11  1  0  0  0
 10 15  1  0  0  0
 10 19  1  0  0  0
 11 12  1  0  0  0
 12 13  1  0  0  0
 13 14  1  0  0  0
 14 15  1  0  0  0
 16 17  1  0  0  0
M  CHG 1   4   1
M  CHG 1  10   1
M  END
> <minimizedAffinity>
-5.29273

$$$$
Row3


 19 22  0  0  0  0  0  0  0  0999 V2000
    7.7678   -4.8314   24.0863 C   0  0  0  0  0  0  0  0  0  0  0  0
    7.6976   -4.1245   25.4623 C   0  0  0  0  0  0  0  0  0  0  0  0
    8.8615   -3.1183   25.6443 C   0  0  0  0  0  0  0  0  0  0  0  0
    8.9482   -2.1442   24.5066 N   0  0  0  0  0  0  0  0  0  0  0  0
    9.9999   -1.0990   24.7518 C   0  0  0  0  0  0  0  0  0  0  0  0
   10.2108   -0.1107   23.5607 C   0  0  0  0  0  0  0  0  0  0  0  0
   10.5077   -0.9438   22.2830 C   0  0  0  0  0  0  0  0  0  0  0  0
    9.2481   -1.7991   21.9773 C   0  0  0  0  0  0  0  0  0  0  0  0
    8.0519   -0.8293   21.6930 C   0  0  0  0  0  0  0  0  0  0  0  0
    7.7715    0.1040   22.8343 N   0  0  0  0  0  0  0  0  0  0  0  0
    6.5816    0.9947   22.6396 C   0  0  0  0  0  0  0  0  0  0  0  0
    6.8695    2.2425   21.7638 C   0  0  0  0  0  0  0  0  0  0  0  0
    8.1040    3.0174   22.2886 C   0  0  0  0  0  0  0  0  0  0  0  0
    9.3283    2.0841   22.4573 C   0  0  0  0  0  0  0  0  0  0  0  0
    8.9825    0.8437   23.3444 C   0  0  0  0  0  0  0  0  0  0  0  0
    9.0561   -2.8188   23.1606 C   0  0  0  0  0  0  0  0  0  0  0  0
    7.8612   -3.7967   22.9370 C   0  0  0  0  0  0  0  0  0  0  0  0
    8.0595   -1.6450   24.4696 H   0  0  0  0  0  0  0  0  0  0  0  0
    7.5035   -0.5282   23.5885 H   0  0  0  0  0  0  0  0  0  0  0  0
  1  2  1  0  0  0
  1 17  1  0  0  0
  2  3  1  0  0  0
  3  4  1  0  0  0
  4  5  1  0  0  0
  4 16  1  0  0  0
  4 18  1  0  0  0
  5  6  1  0  0  0
  6  7  1  0  0  0
  6 15  1  0  0  0
  7  8  1  0  0  0
  8  9  1  0  0  0
  8 16  1  0  0  0
  9 10  1  0  0  0
 10 11  1  0  0  0
 10 15  1  0  0  0
 10 19  1  0  0  0
 11 12  1  0  0  0
 12 13  1  0  0  0
 13 14  1  0  0  0
 14 15  1  0  0  0
 16 17  1  0  0  0
M  CHG 1   4   1
M  CHG 1  10   1
M  END
> <minimizedAffinity>
-5.29248

$$$$
Row3


 19 22  0  0  0  0  0  0  0  0999 V2000
    5.5154   -2.6646   22.8819 C   0  0  0  0  0  0  0  0  0  0  0  0
    6.0448   -2.7601   21.4298 C   0  0  0  0  0  0  0  0  0  0  0  0
    6.3063   -1.3571   20.8268 C   0  0  0  0  0  0  0  0  0  0  0  0
    7.1931   -0.5228   21.7032 N   0  0  0  0  0  0  0  0  0  0  0  0
    7.5396    0.7872   21.0531 C   0  0  0  0  0  0  0  0  0  0  0  0
    8.3803    1.7469   21.9542 C   0  0  0  0  0  0  0  0  0  0  0  0
    7.6198    1.9477   23.2943 C   0  0  0  0  0  0  0  0  0  0  0  0
    7.5465    0.5682   24.0035 C   0  0  0  0  0  0  0  0  0  0  0  0
    9.0073    0.0925   24.3068 C   0  0  0  0  0  0  0  0  0  0  0  0
    9.8567   -0.0109   23.0740 N   0  0  0  0  0  0  0  0  0  0  0  0
   11.2390   -0.5423   23.3063 C   0  0  0  0  0  0  0  0  0  0  0  0
   12.2377    0.5197   23.8368 C   0  0  0  0  0  0  0  0  0  0  0  0
   12.2366    1.7819   22.9385 C   0  0  0  0  0  0  0  0  0  0  0  0
   10.8025    2.3292   22.7334 C   0  0  0  0  0  0  0  0  0  0  0  0
    9.8384    1.2188   22.2015 C   0  0  0  0  0  0  0  0  0  0  0  0
    6.6700   -0.3884   23.1128 C   0  0  0  0  0  0  0  0  0  0  0  0
    6.4519   -1.7930   23.7559 C   0  0  0  0  0  0  0  0  0  0  0  0
    8.0740   -1.0266   21.8066 H   0  0  0  0  0  0  0  0  0  0  0  0
    9.3868   -0.7349   22.5305 H   0  0  0  0  0  0  0  0  0  0  0  0
  1  2  1  0  0  0
  1 17  1  0  0  0
  2  3  1  0  0  0
  3  4  1  0  0  0
  4  5  1  0  0  0
  4 16  1  0  0  0
  4 18  1  0  0  0
  5  6  1  0  0  0
  6  7  1  0  0  0
  6 15  1  0  0  0
  7  8  1  0  0  0
  8  9  1  0  0  0
  8 16  1  0  0  0
  9 10  1  0  0  0
 10 11  1  0  0  0
 10 15  1  0  0  0
 10 19  1  0  0  0
 11 12  1  0  0  0
 12 13  1  0  0  0
 13 14  1  0  0  0
 14 15  1  0  0  0
 16 17  1  0  0  0
M  CHG 1   4   1
M  CHG 1  10   1
M  END
> <minimizedAffinity>
-5.27852

$$$$
Row3


 19 22  0  0  0  0  0  0  0  0999 V2000
    8.9396   -4.4106   27.0214 C   0  0  0  0  0  0  0  0  0  0  0  0
    9.6455   -5.1619   25.8659 C   0  0  0  0  0  0  0  0  0  0  0  0
    8.7266   -5.2877   24.6248 C   0  0  0  0  0  0  0  0  0  0  0  0
    8.1792   -3.9599   24.1912 N   0  0  0  0  0  0  0  0  0  0  0  0
    7.3904   -4.0757   22.9173 C   0  0  0  0  0  0  0  0  0  0  0  0
    6.7088   -2.7458   22.4628 C   0  0  0  0  0  0  0  0  0  0  0  0
    5.8393   -2.2178   23.6374 C   0  0  0  0  0  0  0  0  0  0  0  0
    6.7943   -1.8869   24.8163 C   0  0  0  0  0  0  0  0  0  0  0  0
    7.7746   -0.7570   24.3532 C   0  0  0  0  0  0  0  0  0  0  0  0
    8.5724   -1.1357   23.1399 N   0  0  0  0  0  0  0  0  0  0  0  0
    9.5840   -0.1166   22.7099 C   0  0  0  0  0  0  0  0  0  0  0  0
    8.9848    1.0506   21.8820 C   0  0  0  0  0  0  0  0  0  0  0  0
    8.1469    0.5165   20.6934 C   0  0  0  0  0  0  0  0  0  0  0  0
    7.0912   -0.5145   21.1633 C   0  0  0  0  0  0  0  0  0  0  0  0
    7.7476   -1.6653   21.9940 C   0  0  0  0  0  0  0  0  0  0  0  0
    7.4544   -3.2321   25.2973 C   0  0  0  0  0  0  0  0  0  0  0  0
    8.3834   -3.0481   26.5371 C   0  0  0  0  0  0  0  0  0  0  0  0
    8.9767   -3.3620   23.9744 H   0  0  0  0  0  0  0  0  0  0  0  0
    9.1240   -1.9296   23.4653 H   0  0  0  0  0  0  0  0  0  0  0  0
  1  2  1  0  0  0
  1 17  1  0  0  0
  2  3  1  0  0  0
  3  4  1  0  0  0
  4  5  1  0  0  0
  4 16  1  0  0  0
  4 18  1  0  0  0
  5  6  1  0  0  0
  6  7  1  0  0  0
  6 15  1  0  0  0
  7  8  1  0  0  0
  8  9  1  0  0  0
  8 16  1  0  0  0
  9 10  1  0  0  0
 10 11  1  0  0  0
 10 15  1  0  0  0
 10 19  1  0  0  0
 11 12  1  0  0  0
 12 13  1  0  0  0
 13 14  1  0  0  0
 14 15  1  0  0  0
 16 17  1  0  0  0
M  CHG 1   4   1
M  CHG 1  10   1
M  END
> <minimizedAffinity>
-5.26067

$$$$
Row3


 19 22  0  0  0  0  0  0  0  0999 V2000
    6.3388   -4.8725   22.7357 C   0  0  0  0  0  0  0  0  0  0  0  0
    5.8174   -3.5802   22.0604 C   0  0  0  0  0  0  0  0  0  0  0  0
    5.9095   -2.3632   23.0148 C   0  0  0  0  0  0  0  0  0  0  0  0
    7.2881   -2.1939   23.5817 N   0  0  0  0  0  0  0  0  0  0  0  0
    7.3974   -0.9428   24.4072 C   0  0  0  0  0  0  0  0  0  0  0  0
    8.7805   -0.7572   25.1090 C   0  0  0  0  0  0  0  0  0  0  0  0
    9.0771   -2.0322   25.9461 C   0  0  0  0  0  0  0  0  0  0  0  0
    9.1984   -3.2243   24.9585 C   0  0  0  0  0  0  0  0  0  0  0  0
   10.4039   -2.9471   23.9982 C   0  0  0  0  0  0  0  0  0  0  0  0
   10.2603   -1.6632   23.2346 N   0  0  0  0  0  0  0  0  0  0  0  0
   11.3512   -1.3975   22.2415 C   0  0  0  0  0  0  0  0  0  0  0  0
   12.6430   -0.8129   22.8710 C   0  0  0  0  0  0  0  0  0  0  0  0
   12.3249    0.4290   23.7409 C   0  0  0  0  0  0  0  0  0  0  0  0
   11.2146    0.1250   24.7768 C   0  0  0  0  0  0  0  0  0  0  0  0
    9.9390   -0.4637   24.0901 C   0  0  0  0  0  0  0  0  0  0  0  0
    7.7952   -3.4339   24.2774 C   0  0  0  0  0  0  0  0  0  0  0  0
    7.7607   -4.6599   23.3132 C   0  0  0  0  0  0  0  0  0  0  0  0
    7.9238   -2.0671   22.7942 H   0  0  0  0  0  0  0  0  0  0  0  0
    9.4264   -1.8232   22.6695 H   0  0  0  0  0  0  0  0  0  0  0  0
  1  2  1  0  0  0
  1 17  1  0  0  0
  2  3  1  0  0  0
  3  4  1  0  0  0
  4  5  1  0  0  0
  4 16  1  0  0  0
  4 18  1  0  0  0
  5  6  1  0  0  0
  6  7  1  0  0  0
  6 15  1  0  0  0
  7  8  1  0  0  0
  8  9  1  0  0  0
  8 16  1  0  0  0
  9 10  1  0  0  0
 10 11  1  0  0  0
 10 15  1  0  0  0
 10 19  1  0  0  0
 11 12  1  0  0  0
 12 13  1  0  0  0
 13 14  1  0  0  0
 14 15  1  0  0  0
 16 17  1  0  0  0
M  CHG 1   4   1
M  CHG 1  10   1
M  END
> <minimizedAffinity>
-5.21619

$$$$
Row4


 14 16  0  0  0  0  0  0  0  0999 V2000
   10.7436   -2.2164   23.6704 C   0  0  0  0  0  0  0  0  0  0  0  0
   11.0494   -1.2522   22.6939 C   0  0  0  0  0  0  0  0  0  0  0  0
   10.0981   -0.8589   21.8088 N   0  0  0  0  0  0  0  0  0  0  0  0
    8.8290   -1.3543   21.8074 C   0  0  0  0  0  0  0  0  0  0  0  0
    8.4720   -2.3339   22.7785 C   0  0  0  0  0  0  0  0  0  0  0  0
    7.1630   -2.8604   22.7950 C   0  0  0  0  0  0  0  0  0  0  0  0
    6.2107   -2.4243   21.8600 C   0  0  0  0  0  0  0  0  0  0  0  0
    6.5516   -1.4549   20.8932 C   0  0  0  0  0  0  0  0  0  0  0  0
    5.6102   -1.0013   19.9429 C   0  0  0  0  0  0  0  0  0  0  0  0
    5.9756   -0.0344   18.9904 C   0  0  0  0  0  0  0  0  0  0  0  0
    7.2882    0.4693   19.0019 C   0  0  0  0  0  0  0  0  0  0  0  0
    8.1780    0.0201   19.9238 N   0  0  0  0  0  0  0  0  0  0  0  0
    7.8698   -0.9150   20.8654 C   0  0  0  0  0  0  0  0  0  0  0  0
    9.4467   -2.7573   23.7089 C   0  0  0  0  0  0  0  0  0  0  0  0
  1  2  2  0  0  0
  1 14  1  0  0  0
  2  3  1  0  0  0
  3  4  2  0  0  0
  4  5  1  0  0  0
  4 13  1  0  0  0
  5  6  1  0  0  0
  5 14  2  0  0  0
  6  7  2  0  0  0
  7  8  1  0  0  0
  8  9  2  0  0  0
  8 13  1  0  0  0
  9 10  1  0  0  0
 10 11  2  0  0  0
 11 12  1  0  0  0
 12 13  2  0  0  0
M  END
> <minimizedAffinity>
-5.25840

$$$$
Row4


 14 16  0  0  0  0  0  0  0  0999 V2000
    5.9733    0.0144   18.9490 C   0  0  0  0  0  0  0  0  0  0  0  0
    7.2932    0.4982   18.9742 C   0  0  0  0  0  0  0  0  0  0  0  0
    8.1669    0.0352   19.9045 N   0  0  0  0  0  0  0  0  0  0  0  0
    7.8353   -0.8957   20.8422 C   0  0  0  0  0  0  0  0  0  0  0  0
    6.5088   -1.4156   20.8563 C   0  0  0  0  0  0  0  0  0  0  0  0
    6.1440   -2.3806   21.8190 C   0  0  0  0  0  0  0  0  0  0  0  0
    7.0808   -2.8310   22.7628 C   0  0  0  0  0  0  0  0  0  0  0  0
    8.3975   -2.3240   22.7596 C   0  0  0  0  0  0  0  0  0  0  0  0
    9.3566   -2.7624   23.6994 C   0  0  0  0  0  0  0  0  0  0  0  0
   10.6618   -2.2412   23.6743 C   0  0  0  0  0  0  0  0  0  0  0  0
   10.9919   -1.2810   22.7017 C   0  0  0  0  0  0  0  0  0  0  0  0
   10.0553   -0.8730   21.8074 N   0  0  0  0  0  0  0  0  0  0  0  0
    8.7790   -1.3493   21.7930 C   0  0  0  0  0  0  0  0  0  0  0  0
    5.5837   -0.9476   19.8971 C   0  0  0  0  0  0  0  0  0  0  0  0
  1  2  2  0  0  0
  1 14  1  0  0  0
  2  3  1  0  0  0
  3  4  2  0  0  0
  4  5  1  0  0  0
  4 13  1  0  0  0
  5  6  1  0  0  0
  5 14  2  0  0  0
  6  7  2  0  0  0
  7  8  1  0  0  0
  8  9  2  0  0  0
  8 13  1  0  0  0
  9 10  1  0  0  0
 10 11  2  0  0  0
 11 12  1  0  0  0
 12 13  2  0  0  0
M  END
> <minimizedAffinity>
-5.24006

$$$$
Row4


 14 16  0  0  0  0  0  0  0  0999 V2000
    6.2597   -0.4728   20.3279 C   0  0  0  0  0  0  0  0  0  0  0  0
    6.7081    0.8576   20.2511 C   0  0  0  0  0  0  0  0  0  0  0  0
    7.8860    1.2099   20.8269 N   0  0  0  0  0  0  0  0  0  0  0  0
    8.6838    0.3297   21.4937 C   0  0  0  0  0  0  0  0  0  0  0  0
    8.2711   -1.0301   21.5979 C   0  0  0  0  0  0  0  0  0  0  0  0
    9.0823   -1.9584   22.2842 C   0  0  0  0  0  0  0  0  0  0  0  0
   10.2936   -1.5497   22.8648 C   0  0  0  0  0  0  0  0  0  0  0  0
   10.7134   -0.2061   22.7689 C   0  0  0  0  0  0  0  0  0  0  0  0
   11.9279    0.2277   23.3451 C   0  0  0  0  0  0  0  0  0  0  0  0
   12.3232    1.5721   23.2348 C   0  0  0  0  0  0  0  0  0  0  0  0
   11.4913    2.4709   22.5442 C   0  0  0  0  0  0  0  0  0  0  0  0
   10.3280    2.0337   21.9976 N   0  0  0  0  0  0  0  0  0  0  0  0
    9.9039    0.7416   22.0787 C   0  0  0  0  0  0  0  0  0  0  0  0
    7.0488   -1.4180   21.0059 C   0  0  0  0  0  0  0  0  0  0  0  0
  1  2  2  0  0  0
  1 14  1  0  0  0
  2  3  1  0  0  0
  3  4  2  0  0  0
  4  5  1  0  0  0
  4 13  1  0  0  0
  5  6  1  0  0  0
  5 14  2  0  0  0
  6  7  2  0  0  0
  7  8  1  0  0  0
  8  9  2  0  0  0
  8 13  1  0  0  0
  9 10  1  0  0  0
 10 11  2  0  0  0
 11 12  1  0  0  0
 12 13  2  0  0  0
M  END
> <minimizedAffinity>
-5.12628

$$$$
Row4


 14 16  0  0  0  0  0  0  0  0999 V2000
   12.2880    1.4509   23.2798 C   0  0  0  0  0  0  0  0  0  0  0  0
   11.4931    2.3839   22.5909 C   0  0  0  0  0  0  0  0  0  0  0  0
   10.3205    1.9919   22.0301 N   0  0  0  0  0  0  0  0  0  0  0  0
    9.8522    0.7143   22.0949 C   0  0  0  0  0  0  0  0  0  0  0  0
   10.6232   -0.2669   22.7827 C   0  0  0  0  0  0  0  0  0  0  0  0
   10.1567   -1.5962   22.8619 C   0  0  0  0  0  0  0  0  0  0  0  0
    8.9374   -1.9572   22.2668 C   0  0  0  0  0  0  0  0  0  0  0  0
    8.1646   -0.9952   21.5828 C   0  0  0  0  0  0  0  0  0  0  0  0
    6.9350   -1.3355   20.9766 C   0  0  0  0  0  0  0  0  0  0  0  0
    6.1843   -0.3577   20.3012 C   0  0  0  0  0  0  0  0  0  0  0  0
    6.6781    0.9573   20.2411 C   0  0  0  0  0  0  0  0  0  0  0  0
    7.8623    1.2638   20.8304 N   0  0  0  0  0  0  0  0  0  0  0  0
    8.6239    0.3506   21.4954 C   0  0  0  0  0  0  0  0  0  0  0  0
   11.8465    0.1196   23.3736 C   0  0  0  0  0  0  0  0  0  0  0  0
  1  2  2  0  0  0
  1 14  1  0  0  0
  2  3  1  0  0  0
  3  4  2  0  0  0
  4  5  1  0  0  0
  4 13  1  0  0  0
  5  6  1  0  0  0
  5 14  2  0  0  0
  6  7  2  0  0  0
  7  8  1  0  0  0
  8  9  2  0  0  0
  8 13  1  0  0  0
  9 10  1  0  0  0
 10 11  2  0  0  0
 11 12  1  0  0  0
 12 13  2  0  0  0
M  END
> <minimizedAffinity>
-5.10072

$$$$
Row4


 14 16  0  0  0  0  0  0  0  0999 V2000
   10.6312   -1.2478   22.0752 C   0  0  0  0  0  0  0  0  0  0  0  0
   11.2851   -1.7919   23.1946 C   0  0  0  0  0  0  0  0  0  0  0  0
   10.6146   -2.6222   24.0338 N   0  0  0  0  0  0  0  0  0  0  0  0
    9.3101   -2.9713   23.8539 C   0  0  0  0  0  0  0  0  0  0  0  0
    8.6053   -2.4447   22.7331 C   0  0  0  0  0  0  0  0  0  0  0  0
    7.2536   -2.7932   22.5279 C   0  0  0  0  0  0  0  0  0  0  0  0
    6.5994   -3.6558   23.4218 C   0  0  0  0  0  0  0  0  0  0  0  0
    7.2859   -4.1839   24.5356 C   0  0  0  0  0  0  0  0  0  0  0  0
    6.6482   -5.0535   25.4480 C   0  0  0  0  0  0  0  0  0  0  0  0
    7.3551   -5.5659   26.5495 C   0  0  0  0  0  0  0  0  0  0  0  0
    8.7009   -5.1983   26.7244 C   0  0  0  0  0  0  0  0  0  0  0  0
    9.2954   -4.3613   25.8359 N   0  0  0  0  0  0  0  0  0  0  0  0
    8.6511   -3.8402   24.7546 C   0  0  0  0  0  0  0  0  0  0  0  0
    9.2842   -1.5788   21.8474 C   0  0  0  0  0  0  0  0  0  0  0  0
  1  2  2  0  0  0
  1 14  1  0  0  0
  2  3  1  0  0  0
  3  4  2  0  0  0
  4  5  1  0  0  0
  4 13  1  0  0  0
  5  6  1  0  0  0
  5 14  2  0  0  0
  6  7  2  0  0  0
  7  8  1  0  0  0
  8  9  2  0  0  0
  8 13  1  0  0  0
  9 10  1  0  0  0
 10 11  2  0  0  0
 11 12  1  0  0  0
 12 13  2  0  0  0
M  END
> <minimizedAffinity>
-5.04159

$$$$
Row4


 14 16  0  0  0  0  0  0  0  0999 V2000
    7.3569   -5.6248   26.6522 C   0  0  0  0  0  0  0  0  0  0  0  0
    8.6923   -5.2215   26.8284 C   0  0  0  0  0  0  0  0  0  0  0  0
    9.2730   -4.3884   25.9275 N   0  0  0  0  0  0  0  0  0  0  0  0
    8.6242   -3.9047   24.8315 C   0  0  0  0  0  0  0  0  0  0  0  0
    7.2692   -4.2857   24.6105 C   0  0  0  0  0  0  0  0  0  0  0  0
    6.5784   -3.7963   23.4817 C   0  0  0  0  0  0  0  0  0  0  0  0
    7.2188   -2.9363   22.5753 C   0  0  0  0  0  0  0  0  0  0  0  0
    8.5603   -2.5516   22.7828 C   0  0  0  0  0  0  0  0  0  0  0  0
    9.2248   -1.6875   21.8844 C   0  0  0  0  0  0  0  0  0  0  0  0
   10.5618   -1.3195   22.1144 C   0  0  0  0  0  0  0  0  0  0  0  0
   11.2206   -1.8252   23.2489 C   0  0  0  0  0  0  0  0  0  0  0  0
   10.5640   -2.6544   24.1001 N   0  0  0  0  0  0  0  0  0  0  0  0
    9.2695   -3.0383   23.9185 C   0  0  0  0  0  0  0  0  0  0  0  0
    6.6457   -5.1518   25.5358 C   0  0  0  0  0  0  0  0  0  0  0  0
  1  2  2  0  0  0
  1 14  1  0  0  0
  2  3  1  0  0  0
  3  4  2  0  0  0
  4  5  1  0  0  0
  4 13  1  0  0  0
  5  6  1  0  0  0
  5 14  2  0  0  0
  6  7  2  0  0  0
  7  8  1  0  0  0
  8  9  2  0  0  0
  8 13  1  0  0  0
  9 10  1  0  0  0
 10 11  2  0  0  0
 11 12  1  0  0  0
 12 13  2  0  0  0
M  END
> <minimizedAffinity>
-5.02776

$$$$
Row4


 14 16  0  0  0  0  0  0  0  0999 V2000
    8.1006    0.0839   20.6258 C   0  0  0  0  0  0  0  0  0  0  0  0
    6.9889   -0.7257   20.9182 C   0  0  0  0  0  0  0  0  0  0  0  0
    7.0948   -1.7139   21.8431 N   0  0  0  0  0  0  0  0  0  0  0  0
    8.2441   -1.9777   22.5254 C   0  0  0  0  0  0  0  0  0  0  0  0
    9.3976   -1.1836   22.2631 C   0  0  0  0  0  0  0  0  0  0  0  0
   10.5983   -1.4398   22.9585 C   0  0  0  0  0  0  0  0  0  0  0  0
   10.6625   -2.4727   23.9073 C   0  0  0  0  0  0  0  0  0  0  0  0
    9.5274   -3.2664   24.1762 C   0  0  0  0  0  0  0  0  0  0  0  0
    9.5687   -4.3107   25.1264 C   0  0  0  0  0  0  0  0  0  0  0  0
    8.4234   -5.0866   25.3756 C   0  0  0  0  0  0  0  0  0  0  0  0
    7.2433   -4.8046   24.6651 C   0  0  0  0  0  0  0  0  0  0  0  0
    7.2246   -3.7963   23.7560 N   0  0  0  0  0  0  0  0  0  0  0  0
    8.3087   -3.0183   23.4812 C   0  0  0  0  0  0  0  0  0  0  0  0
    9.3092   -0.1501   21.3044 C   0  0  0  0  0  0  0  0  0  0  0  0
  1  2  2  0  0  0
  1 14  1  0  0  0
  2  3  1  0  0  0
  3  4  2  0  0  0
  4  5  1  0  0  0
  4 13  1  0  0  0
  5  6  1  0  0  0
  5 14  2  0  0  0
  6  7  2  0  0  0
  7  8  1  0  0  0
  8  9  2  0  0  0
  8 13  1  0  0  0
  9 10  1  0  0  0
 10 11  2  0  0  0
 11 12  1  0  0  0
 12 13  2  0  0  0
M  END
> <minimizedAffinity>
-4.99936

$$$$
Row4


 14 16  0  0  0  0  0  0  0  0999 V2000
    5.8757    0.0647   18.4056 C   0  0  0  0  0  0  0  0  0  0  0  0
    4.9447    1.0520   18.7736 C   0  0  0  0  0  0  0  0  0  0  0  0
    5.1936    1.8540   19.8403 N   0  0  0  0  0  0  0  0  0  0  0  0
    6.3216    1.7595   20.5984 C   0  0  0  0  0  0  0  0  0  0  0  0
    7.2944    0.7736   20.2641 C   0  0  0  0  0  0  0  0  0  0  0  0
    8.4699    0.6584   21.0360 C   0  0  0  0  0  0  0  0  0  0  0  0
    8.6861    1.5097   22.1314 C   0  0  0  0  0  0  0  0  0  0  0  0
    7.7305    2.4899   22.4729 C   0  0  0  0  0  0  0  0  0  0  0  0
    7.9267    3.3571   23.5705 C   0  0  0  0  0  0  0  0  0  0  0  0
    6.9588    4.3254   23.8894 C   0  0  0  0  0  0  0  0  0  0  0  0
    5.7990    4.4132   23.0995 C   0  0  0  0  0  0  0  0  0  0  0  0
    5.6296    3.5701   22.0488 N   0  0  0  0  0  0  0  0  0  0  0  0
    6.5392    2.6170   21.7019 C   0  0  0  0  0  0  0  0  0  0  0  0
    7.0553   -0.0714   19.1579 C   0  0  0  0  0  0  0  0  0  0  0  0
  1  2  2  0  0  0
  1 14  1  0  0  0
  2  3  1  0  0  0
  3  4  2  0  0  0
  4  5  1  0  0  0
  4 13  1  0  0  0
  5  6  1  0  0  0
  5 14  2  0  0  0
  6  7  2  0  0  0
  7  8  1  0  0  0
  8  9  2  0  0  0
  8 13  1  0  0  0
  9 10  1  0  0  0
 10 11  2  0  0  0
 11 12  1  0  0  0
 12 13  2  0  0  0
M  END
> <minimizedAffinity>
-4.97560

$$$$
Row4


 14 16  0  0  0  0  0  0  0  0999 V2000
    8.1303   -5.1624   25.3066 C   0  0  0  0  0  0  0  0  0  0  0  0
    6.9689   -4.8580   24.5750 C   0  0  0  0  0  0  0  0  0  0  0  0
    6.9852   -3.8491   23.6668 N   0  0  0  0  0  0  0  0  0  0  0  0
    8.0883   -3.0913   23.4124 C   0  0  0  0  0  0  0  0  0  0  0  0
    9.2894   -3.3624   24.1293 C   0  0  0  0  0  0  0  0  0  0  0  0
   10.4437   -2.5897   23.8815 C   0  0  0  0  0  0  0  0  0  0  0  0
   10.4151   -1.5553   22.9325 C   0  0  0  0  0  0  0  0  0  0  0  0
    9.2321   -1.2767   22.2159 C   0  0  0  0  0  0  0  0  0  0  0  0
    9.1801   -0.2412   21.2566 C   0  0  0  0  0  0  0  0  0  0  0  0
    7.9887    0.0157   20.5563 C   0  0  0  0  0  0  0  0  0  0  0  0
    6.8569   -0.7732   20.8277 C   0  0  0  0  0  0  0  0  0  0  0  0
    6.9279   -1.7637   21.7535 N   0  0  0  0  0  0  0  0  0  0  0  0
    8.0595   -2.0493   22.4564 C   0  0  0  0  0  0  0  0  0  0  0  0
    9.2943   -4.4079   25.0791 C   0  0  0  0  0  0  0  0  0  0  0  0
  1  2  2  0  0  0
  1 14  1  0  0  0
  2  3  1  0  0  0
  3  4  2  0  0  0
  4  5  1  0  0  0
  4 13  1  0  0  0
  5  6  1  0  0  0
  5 14  2  0  0  0
  6  7  2  0  0  0
  7  8  1  0  0  0
  8  9  2  0  0  0
  8 13  1  0  0  0
  9 10  1  0  0  0
 10 11  2  0  0  0
 11 12  1  0  0  0
 12 13  2  0  0  0
M  END
> <minimizedAffinity>
-4.96130

$$$$
Row5


 27 32  0  0  0  0  0  0  0  0999 V2000
    6.1755   -4.0269   27.8460 C   0  0  0  0  0  0  0  0  0  0  0  0
    7.0269   -4.2882   26.5553 C   0  0  0  0  0  0  0  0  0  0  0  0
    8.2447   -5.1855   26.9946 C   0  0  0  0  0  0  0  0  0  0  0  0
    9.3100   -5.4621   25.9008 C   0  0  0  0  0  0  0  0  0  0  0  0
    9.6159   -4.2445   24.9803 C   0  0  0  0  0  0  0  0  0  0  0  0
    8.4213   -3.2696   24.6039 C   0  0  0  0  0  0  0  0  0  0  0  0
    7.4031   -3.9810   23.6293 C   0  0  0  0  0  0  0  0  0  0  0  0
    7.9358   -4.4950   22.4033 O   0  0  0  0  0  0  0  0  0  0  0  0
    6.9305   -5.3859   21.8899 C   0  0  0  0  0  0  0  0  0  0  0  0
    6.0309   -5.7773   23.0803 C   0  0  0  0  0  0  0  0  0  0  0  0
    6.7930   -5.1987   24.1978 N   0  0  0  0  0  0  0  0  0  0  0  0
    6.1103   -5.0191   25.5054 C   0  0  0  0  0  0  0  0  0  0  0  0
    9.0374   -1.9077   24.0242 C   0  0  0  0  0  0  0  0  0  0  0  0
    9.9217   -2.0546   22.7288 C   0  0  0  0  0  0  0  0  0  0  0  0
   10.4616   -0.6922   22.1905 C   0  0  0  0  0  0  0  0  0  0  0  0
    9.3950    0.4473   22.2556 C   0  0  0  0  0  0  0  0  0  0  0  0
    8.9215    0.6293   23.7095 C   0  0  0  0  0  0  0  0  0  0  0  0
    8.0545   -0.6563   23.9095 C   0  0  0  0  0  0  0  0  0  0  0  0
    7.2356   -0.4959   25.2356 C   0  0  0  0  0  0  0  0  0  0  0  0
    6.5767   -1.7960   25.7485 C   0  0  0  0  0  0  0  0  0  0  0  0
    7.6192   -2.9538   25.9356 C   0  0  0  0  0  0  0  0  0  0  0  0
    7.2441   -0.5826   22.5570 C   0  0  0  0  0  0  0  0  0  0  0  0
    6.0400    0.1789   22.6478 O   0  0  0  0  0  0  0  0  0  0  0  0
    8.1487    0.0633   21.6204 C   0  0  0  0  0  0  0  0  0  0  0  0
    7.8786    0.2548   20.3203 C   0  0  0  0  0  0  0  0  0  0  0  0
    7.4839   -5.8754   24.5221 H   0  0  0  0  0  0  0  0  0  0  0  0
    6.2516    1.0884   22.9106 H   0  0  0  0  0  0  0  0  0  0  0  0
  2  1  1  0  0  0
  2  3  1  0  0  0
  2 12  1  0  0  0
  2 21  1  0  0  0
  3  4  1  0  0  0
  4  5  1  0  0  0
  6  5  1  0  0  0
  6  7  1  0  0  0
  6 13  1  0  0  0
  6 21  1  0  0  0
  7  8  1  0  0  0
  7 11  1  0  0  0
  8  9  1  0  0  0
  9 10  1  0  0  0
 10 11  1  0  0  0
 11 12  1  0  0  0
 11 26  1  0  0  0
 13 14  1  0  0  0
 13 18  1  0  0  0
 14 15  1  0  0  0
 15 16  1  0  0  0
 16 17  1  0  0  0
 16 24  1  0  0  0
 18 17  1  0  0  0
 18 19  1  0  0  0
 18 22  1  0  0  0
 19 20  1  0  0  0
 20 21  1  0  0  0
 22 23  1  0  0  0
 22 24  1  0  0  0
 23 27  1  0  0  0
 24 25  2  0  0  0
M  CHG 1  11   1
M  END
> <minimizedAffinity>
-7.74144

$$$$
Row5


 27 32  0  0  0  0  0  0  0  0999 V2000
    7.0437    2.7445   23.6499 C   0  0  0  0  0  0  0  0  0  0  0  0
    7.7100    1.5183   22.9347 C   0  0  0  0  0  0  0  0  0  0  0  0
    7.3100    1.6136   21.4141 C   0  0  0  0  0  0  0  0  0  0  0  0
    7.7455    0.4192   20.5243 C   0  0  0  0  0  0  0  0  0  0  0  0
    7.6175   -0.9724   21.2103 C   0  0  0  0  0  0  0  0  0  0  0  0
    7.9209   -1.0734   22.7649 C   0  0  0  0  0  0  0  0  0  0  0  0
    9.4608   -0.8731   23.0496 C   0  0  0  0  0  0  0  0  0  0  0  0
   10.3613   -1.7637   22.3812 O   0  0  0  0  0  0  0  0  0  0  0  0
   11.6613   -1.1615   22.5047 C   0  0  0  0  0  0  0  0  0  0  0  0
   11.4338    0.3346   22.8039 C   0  0  0  0  0  0  0  0  0  0  0  0
    9.9800    0.4335   22.6007 N   0  0  0  0  0  0  0  0  0  0  0  0
    9.2672    1.6216   23.1375 C   0  0  0  0  0  0  0  0  0  0  0  0
    7.3306   -2.4603   23.3111 C   0  0  0  0  0  0  0  0  0  0  0  0
    7.9247   -3.7623   22.6526 C   0  0  0  0  0  0  0  0  0  0  0  0
    7.3399   -5.0804   23.2510 C   0  0  0  0  0  0  0  0  0  0  0  0
    7.1824   -5.0198   24.8040 C   0  0  0  0  0  0  0  0  0  0  0  0
    6.2676   -3.8412   25.1850 C   0  0  0  0  0  0  0  0  0  0  0  0
    7.2038   -2.6235   24.8930 C   0  0  0  0  0  0  0  0  0  0  0  0
    6.5506   -1.3413   25.5125 C   0  0  0  0  0  0  0  0  0  0  0  0
    7.1755   -0.0081   25.0439 C   0  0  0  0  0  0  0  0  0  0  0  0
    7.1739    0.1292   23.4807 C   0  0  0  0  0  0  0  0  0  0  0  0
    8.5026   -3.1755   25.6001 C   0  0  0  0  0  0  0  0  0  0  0  0
    8.5900   -2.8422   26.9855 O   0  0  0  0  0  0  0  0  0  0  0  0
    8.4124   -4.6195   25.4606 C   0  0  0  0  0  0  0  0  0  0  0  0
    9.3628   -5.4773   25.8619 C   0  0  0  0  0  0  0  0  0  0  0  0
    9.7882    0.6208   21.6165 H   0  0  0  0  0  0  0  0  0  0  0  0
    7.8245   -3.2087   27.4551 H   0  0  0  0  0  0  0  0  0  0  0  0
  2  1  1  0  0  0
  2  3  1  0  0  0
  2 12  1  0  0  0
  2 21  1  0  0  0
  3  4  1  0  0  0
  4  5  1  0  0  0
  6  5  1  0  0  0
  6  7  1  0  0  0
  6 13  1  0  0  0
  6 21  1  0  0  0
  7  8  1  0  0  0
  7 11  1  0  0  0
  8  9  1  0  0  0
  9 10  1  0  0  0
 10 11  1  0  0  0
 11 12  1  0  0  0
 11 26  1  0  0  0
 13 14  1  0  0  0
 13 18  1  0  0  0
 14 15  1  0  0  0
 15 16  1  0  0  0
 16 17  1  0  0  0
 16 24  1  0  0  0
 18 17  1  0  0  0
 18 19  1  0  0  0
 18 22  1  0  0  0
 19 20  1  0  0  0
 20 21  1  0  0  0
 22 23  1  0  0  0
 22 24  1  0  0  0
 23 27  1  0  0  0
 24 25  2  0  0  0
M  CHG 1  11   1
M  END
> <minimizedAffinity>
-7.18146

$$$$
Row5


 27 32  0  0  0  0  0  0  0  0999 V2000
   11.1443    0.5931   22.8921 C   0  0  0  0  0  0  0  0  0  0  0  0
    9.5912    0.4732   22.7115 C   0  0  0  0  0  0  0  0  0  0  0  0
    8.9613    1.7536   23.3786 C   0  0  0  0  0  0  0  0  0  0  0  0
    7.4114    1.7886   23.4446 C   0  0  0  0  0  0  0  0  0  0  0  0
    6.7516    0.4165   23.7696 C   0  0  0  0  0  0  0  0  0  0  0  0
    7.4267   -0.8971   23.1883 C   0  0  0  0  0  0  0  0  0  0  0  0
    7.2434   -0.9755   21.6221 C   0  0  0  0  0  0  0  0  0  0  0  0
    5.9003   -0.9321   21.1271 O   0  0  0  0  0  0  0  0  0  0  0  0
    6.0165   -0.6505   19.7217 C   0  0  0  0  0  0  0  0  0  0  0  0
    7.4100   -0.0253   19.5054 C   0  0  0  0  0  0  0  0  0  0  0  0
    7.8416    0.1636   20.8991 N   0  0  0  0  0  0  0  0  0  0  0  0
    9.2826    0.4050   21.1698 C   0  0  0  0  0  0  0  0  0  0  0  0
    6.8423   -2.1638   23.9785 C   0  0  0  0  0  0  0  0  0  0  0  0
    5.2848   -2.3756   23.8735 C   0  0  0  0  0  0  0  0  0  0  0  0
    4.7805   -3.6443   24.6308 C   0  0  0  0  0  0  0  0  0  0  0  0
    5.7274   -4.8730   24.4462 C   0  0  0  0  0  0  0  0  0  0  0  0
    7.1405   -4.5154   24.9425 C   0  0  0  0  0  0  0  0  0  0  0  0
    7.6221   -3.5459   23.8144 C   0  0  0  0  0  0  0  0  0  0  0  0
    9.1620   -3.3152   23.9883 C   0  0  0  0  0  0  0  0  0  0  0  0
    9.7361   -2.1421   23.1627 C   0  0  0  0  0  0  0  0  0  0  0  0
    8.9877   -0.7934   23.4510 C   0  0  0  0  0  0  0  0  0  0  0  0
    7.1655   -4.4118   22.5761 C   0  0  0  0  0  0  0  0  0  0  0  0
    8.1531   -5.3395   22.1266 O   0  0  0  0  0  0  0  0  0  0  0  0
    6.0016   -5.1436   23.0477 C   0  0  0  0  0  0  0  0  0  0  0  0
    5.2530   -5.9480   22.2778 C   0  0  0  0  0  0  0  0  0  0  0  0
    7.5096    1.0672   21.2363 H   0  0  0  0  0  0  0  0  0  0  0  0
    8.3721   -5.9524   22.8459 H   0  0  0  0  0  0  0  0  0  0  0  0
  2  1  1  0  0  0
  2  3  1  0  0  0
  2 12  1  0  0  0
  2 21  1  0  0  0
  3  4  1  0  0  0
  4  5  1  0  0  0
  6  5  1  0  0  0
  6  7  1  0  0  0
  6 13  1  0  0  0
  6 21  1  0  0  0
  7  8  1  0  0  0
  7 11  1  0  0  0
  8  9  1  0  0  0
  9 10  1  0  0  0
 10 11  1  0  0  0
 11 12  1  0  0  0
 11 26  1  0  0  0
 13 14  1  0  0  0
 13 18  1  0  0  0
 14 15  1  0  0  0
 15 16  1  0  0  0
 16 17  1  0  0  0
 16 24  1  0  0  0
 18 17  1  0  0  0
 18 19  1  0  0  0
 18 22  1  0  0  0
 19 20  1  0  0  0
 20 21  1  0  0  0
 22 23  1  0  0  0
 22 24  1  0  0  0
 23 27  1  0  0  0
 24 25  2  0  0  0
M  CHG 1  11   1
M  END
> <minimizedAffinity>
-7.00237

$$$$
Row5


 27 32  0  0  0  0  0  0  0  0999 V2000
    8.1751   -5.5604   26.6983 C   0  0  0  0  0  0  0  0  0  0  0  0
    7.1912   -4.5796   25.9708 C   0  0  0  0  0  0  0  0  0  0  0  0
    6.0314   -5.4652   25.3776 C   0  0  0  0  0  0  0  0  0  0  0  0
    5.0005   -4.7214   24.4877 C   0  0  0  0  0  0  0  0  0  0  0  0
    5.6197   -3.6386   23.5562 C   0  0  0  0  0  0  0  0  0  0  0  0
    6.8541   -2.8003   24.0971 C   0  0  0  0  0  0  0  0  0  0  0  0
    6.4023   -1.8142   25.2444 C   0  0  0  0  0  0  0  0  0  0  0  0
    5.3634   -0.8828   24.9221 O   0  0  0  0  0  0  0  0  0  0  0  0
    4.8934   -0.3779   26.1838 C   0  0  0  0  0  0  0  0  0  0  0  0
    5.3153   -1.4006   27.2589 C   0  0  0  0  0  0  0  0  0  0  0  0
    5.8098   -2.4966   26.4112 N   0  0  0  0  0  0  0  0  0  0  0  0
    6.6557   -3.5486   27.0323 C   0  0  0  0  0  0  0  0  0  0  0  0
    7.5628   -2.0761   22.8548 C   0  0  0  0  0  0  0  0  0  0  0  0
    6.6601   -1.0722   22.0432 C   0  0  0  0  0  0  0  0  0  0  0  0
    7.4150   -0.3704   20.8706 C   0  0  0  0  0  0  0  0  0  0  0  0
    8.8664    0.0580   21.2585 C   0  0  0  0  0  0  0  0  0  0  0  0
    9.6670   -1.1779   21.7084 C   0  0  0  0  0  0  0  0  0  0  0  0
    9.0180   -1.4698   23.1005 C   0  0  0  0  0  0  0  0  0  0  0  0
    9.9128   -2.5140   23.8512 C   0  0  0  0  0  0  0  0  0  0  0  0
    9.2550   -3.1516   25.0955 C   0  0  0  0  0  0  0  0  0  0  0  0
    7.8749   -3.8184   24.7590 C   0  0  0  0  0  0  0  0  0  0  0  0
    9.0260    0.0075   23.6564 C   0  0  0  0  0  0  0  0  0  0  0  0
   10.2251    0.3560   24.3483 O   0  0  0  0  0  0  0  0  0  0  0  0
    8.8942    0.8457   22.4762 C   0  0  0  0  0  0  0  0  0  0  0  0
    8.7816    2.1822   22.5086 C   0  0  0  0  0  0  0  0  0  0  0  0
    5.0324   -3.1082   26.1618 H   0  0  0  0  0  0  0  0  0  0  0  0
   10.9822    0.2662   23.7485 H   0  0  0  0  0  0  0  0  0  0  0  0
  2  1  1  0  0  0
  2  3  1  0  0  0
  2 12  1  0  0  0
  2 21  1  0  0  0
  3  4  1  0  0  0
  4  5  1  0  0  0
  6  5  1  0  0  0
  6  7  1  0  0  0
  6 13  1  0  0  0
  6 21  1  0  0  0
  7  8  1  0  0  0
  7 11  1  0  0  0
  8  9  1  0  0  0
  9 10  1  0  0  0
 10 11  1  0  0  0
 11 12  1  0  0  0
 11 26  1  0  0  0
 13 14  1  0  0  0
 13 18  1  0  0  0
 14 15  1  0  0  0
 15 16  1  0  0  0
 16 17  1  0  0  0
 16 24  1  0  0  0
 18 17  1  0  0  0
 18 19  1  0  0  0
 18 22  1  0  0  0
 19 20  1  0  0  0
 20 21  1  0  0  0
 22 23  1  0  0  0
 22 24  1  0  0  0
 23 27  1  0  0  0
 24 25  2  0  0  0
M  CHG 1  11   1
M  END
> <minimizedAffinity>
-6.97267

$$$$
Row5


 27 32  0  0  0  0  0  0  0  0999 V2000
    9.3517   -0.1712   28.3748 C   0  0  0  0  0  0  0  0  0  0  0  0
    8.8205   -0.0797   26.9022 C   0  0  0  0  0  0  0  0  0  0  0  0
    7.9185    1.2096   26.8295 C   0  0  0  0  0  0  0  0  0  0  0  0
    7.1655    1.4333   25.4913 C   0  0  0  0  0  0  0  0  0  0  0  0
    6.6050    0.1326   24.8450 C   0  0  0  0  0  0  0  0  0  0  0  0
    7.4510   -1.2024   24.9906 C   0  0  0  0  0  0  0  0  0  0  0  0
    8.7707   -1.1265   24.1275 C   0  0  0  0  0  0  0  0  0  0  0  0
    8.6116   -0.8738   22.7269 O   0  0  0  0  0  0  0  0  0  0  0  0
    9.9150   -0.4931   22.2535 C   0  0  0  0  0  0  0  0  0  0  0  0
   10.7204   -0.0319   23.4856 C   0  0  0  0  0  0  0  0  0  0  0  0
    9.6639   -0.0153   24.5093 N   0  0  0  0  0  0  0  0  0  0  0  0
   10.0621    0.0199   25.9405 C   0  0  0  0  0  0  0  0  0  0  0  0
    6.5063   -2.4469   24.6315 C   0  0  0  0  0  0  0  0  0  0  0  0
    5.9073   -2.4521   23.1746 C   0  0  0  0  0  0  0  0  0  0  0  0
    5.0279   -3.7060   22.8716 C   0  0  0  0  0  0  0  0  0  0  0  0
    5.6392   -5.0242   23.4451 C   0  0  0  0  0  0  0  0  0  0  0  0
    5.8212   -4.8894   24.9682 C   0  0  0  0  0  0  0  0  0  0  0  0
    7.0274   -3.8975   25.0432 C   0  0  0  0  0  0  0  0  0  0  0  0
    7.5566   -3.8773   26.5177 C   0  0  0  0  0  0  0  0  0  0  0  0
    8.5301   -2.7210   26.8382 C   0  0  0  0  0  0  0  0  0  0  0  0
    7.9126   -1.3176   26.5040 C   0  0  0  0  0  0  0  0  0  0  0  0
    7.9463   -4.5932   23.9647 C   0  0  0  0  0  0  0  0  0  0  0  0
    8.8072   -5.5969   24.5026 O   0  0  0  0  0  0  0  0  0  0  0  0
    7.0173   -5.2098   23.0321 C   0  0  0  0  0  0  0  0  0  0  0  0
    7.3856   -5.8469   21.9103 C   0  0  0  0  0  0  0  0  0  0  0  0
    9.1971    0.8916   24.4988 H   0  0  0  0  0  0  0  0  0  0  0  0
    8.2734   -6.2902   24.9214 H   0  0  0  0  0  0  0  0  0  0  0  0
  2  1  1  0  0  0
  2  3  1  0  0  0
  2 12  1  0  0  0
  2 21  1  0  0  0
  3  4  1  0  0  0
  4  5  1  0  0  0
  6  5  1  0  0  0
  6  7  1  0  0  0
  6 13  1  0  0  0
  6 21  1  0  0  0
  7  8  1  0  0  0
  7 11  1  0  0  0
  8  9  1  0  0  0
  9 10  1  0  0  0
 10 11  1  0  0  0
 11 12  1  0  0  0
 11 26  1  0  0  0
 13 14  1  0  0  0
 13 18  1  0  0  0
 14 15  1  0  0  0
 15 16  1  0  0  0
 16 17  1  0  0  0
 16 24  1  0  0  0
 18 17  1  0  0  0
 18 19  1  0  0  0
 18 22  1  0  0  0
 19 20  1  0  0  0
 20 21  1  0  0  0
 22 23  1  0  0  0
 22 24  1  0  0  0
 23 27  1  0  0  0
 24 25  2  0  0  0
M  CHG 1  11   1
M  END
> <minimizedAffinity>
-6.84804

$$$$
Row5


 27 32  0  0  0  0  0  0  0  0999 V2000
    8.7810    1.8236   21.5573 C   0  0  0  0  0  0  0  0  0  0  0  0
    9.2024    0.9278   22.7734 C   0  0  0  0  0  0  0  0  0  0  0  0
   10.7720    1.0160   22.8735 C   0  0  0  0  0  0  0  0  0  0  0  0
   11.4350    0.0925   23.9296 C   0  0  0  0  0  0  0  0  0  0  0  0
   10.7907   -1.3203   24.0419 C   0  0  0  0  0  0  0  0  0  0  0  0
    9.2207   -1.4466   23.8466 C   0  0  0  0  0  0  0  0  0  0  0  0
    8.4507   -0.8002   25.0639 C   0  0  0  0  0  0  0  0  0  0  0  0
    8.7602   -1.3090   26.3663 O   0  0  0  0  0  0  0  0  0  0  0  0
    8.2326   -0.3438   27.2925 C   0  0  0  0  0  0  0  0  0  0  0  0
    8.0670    0.9777   26.5142 C   0  0  0  0  0  0  0  0  0  0  0  0
    8.7401    0.6348   25.2517 N   0  0  0  0  0  0  0  0  0  0  0  0
    8.5013    1.4944   24.0634 C   0  0  0  0  0  0  0  0  0  0  0  0
    8.8607   -2.9877   23.5901 C   0  0  0  0  0  0  0  0  0  0  0  0
    9.2502   -3.9822   24.7480 C   0  0  0  0  0  0  0  0  0  0  0  0
    8.8410   -5.4606   24.4575 C   0  0  0  0  0  0  0  0  0  0  0  0
    7.4287   -5.5775   23.8002 C   0  0  0  0  0  0  0  0  0  0  0  0
    7.4032   -4.7773   22.4849 C   0  0  0  0  0  0  0  0  0  0  0  0
    7.4047   -3.3092   23.0226 C   0  0  0  0  0  0  0  0  0  0  0  0
    7.0709   -2.3485   21.8308 C   0  0  0  0  0  0  0  0  0  0  0  0
    7.3448   -0.8538   22.1106 C   0  0  0  0  0  0  0  0  0  0  0  0
    8.8246   -0.5984   22.5659 C   0  0  0  0  0  0  0  0  0  0  0  0
    6.2943   -3.4841   24.1308 C   0  0  0  0  0  0  0  0  0  0  0  0
    4.9673   -3.2529   23.6580 O   0  0  0  0  0  0  0  0  0  0  0  0
    6.4153   -4.8682   24.5580 C   0  0  0  0  0  0  0  0  0  0  0  0
    5.6997   -5.4166   25.5516 C   0  0  0  0  0  0  0  0  0  0  0  0
    9.7374    0.8317   25.3360 H   0  0  0  0  0  0  0  0  0  0  0  0
    4.7657   -3.8763   22.9426 H   0  0  0  0  0  0  0  0  0  0  0  0
  2  1  1  0  0  0
  2  3  1  0  0  0
  2 12  1  0  0  0
  2 21  1  0  0  0
  3  4  1  0  0  0
  4  5  1  0  0  0
  6  5  1  0  0  0
  6  7  1  0  0  0
  6 13  1  0  0  0
  6 21  1  0  0  0
  7  8  1  0  0  0
  7 11  1  0  0  0
  8  9  1  0  0  0
  9 10  1  0  0  0
 10 11  1  0  0  0
 11 12  1  0  0  0
 11 26  1  0  0  0
 13 14  1  0  0  0
 13 18  1  0  0  0
 14 15  1  0  0  0
 15 16  1  0  0  0
 16 17  1  0  0  0
 16 24  1  0  0  0
 18 17  1  0  0  0
 18 19  1  0  0  0
 18 22  1  0  0  0
 19 20  1  0  0  0
 20 21  1  0  0  0
 22 23  1  0  0  0
 22 24  1  0  0  0
 23 27  1  0  0  0
 24 25  2  0  0  0
M  CHG 1  11   1
M  END
> <minimizedAffinity>
-6.78705

$$$$
Row5


 27 32  0  0  0  0  0  0  0  0999 V2000
    6.5338    0.8970   20.3466 C   0  0  0  0  0  0  0  0  0  0  0  0
    7.3970    0.6669   21.6354 C   0  0  0  0  0  0  0  0  0  0  0  0
    8.8155    1.2861   21.3423 C   0  0  0  0  0  0  0  0  0  0  0  0
    9.8933    1.0540   22.4342 C   0  0  0  0  0  0  0  0  0  0  0  0
    9.8521   -0.3588   23.0868 C   0  0  0  0  0  0  0  0  0  0  0  0
    8.4371   -1.0448   23.3023 C   0  0  0  0  0  0  0  0  0  0  0  0
    7.6197   -0.3014   24.4301 C   0  0  0  0  0  0  0  0  0  0  0  0
    8.2426   -0.1970   25.7154 O   0  0  0  0  0  0  0  0  0  0  0  0
    7.4940    0.8041   26.4262 C   0  0  0  0  0  0  0  0  0  0  0  0
    6.7523    1.6437   25.3658 C   0  0  0  0  0  0  0  0  0  0  0  0
    7.3601    1.1206   24.1323 N   0  0  0  0  0  0  0  0  0  0  0  0
    6.6814    1.3874   22.8376 C   0  0  0  0  0  0  0  0  0  0  0  0
    8.6646   -2.6069   23.5824 C   0  0  0  0  0  0  0  0  0  0  0  0
    9.5297   -2.9544   24.8522 C   0  0  0  0  0  0  0  0  0  0  0  0
    9.6844   -4.4890   25.0943 C   0  0  0  0  0  0  0  0  0  0  0  0
    8.3592   -5.2762   24.8405 C   0  0  0  0  0  0  0  0  0  0  0  0
    7.8848   -5.0369   23.3953 C   0  0  0  0  0  0  0  0  0  0  0  0
    7.3873   -3.5572   23.4802 C   0  0  0  0  0  0  0  0  0  0  0  0
    6.5825   -3.2332   22.1756 C   0  0  0  0  0  0  0  0  0  0  0  0
    6.2961   -1.7317   21.9501 C   0  0  0  0  0  0  0  0  0  0  0  0
    7.6080   -0.8708   21.9610 C   0  0  0  0  0  0  0  0  0  0  0  0
    6.5579   -3.6847   24.8172 C   0  0  0  0  0  0  0  0  0  0  0  0
    5.1990   -4.0739   24.6171 O   0  0  0  0  0  0  0  0  0  0  0  0
    7.2433   -4.7158   25.5787 C   0  0  0  0  0  0  0  0  0  0  0  0
    6.9058   -5.0845   26.8237 C   0  0  0  0  0  0  0  0  0  0  0  0
    8.2101    1.6452   23.9254 H   0  0  0  0  0  0  0  0  0  0  0  0
    5.1716   -4.9363   24.1738 H   0  0  0  0  0  0  0  0  0  0  0  0
  2  1  1  0  0  0
  2  3  1  0  0  0
  2 12  1  0  0  0
  2 21  1  0  0  0
  3  4  1  0  0  0
  4  5  1  0  0  0
  6  5  1  0  0  0
  6  7  1  0  0  0
  6 13  1  0  0  0
  6 21  1  0  0  0
  7  8  1  0  0  0
  7 11  1  0  0  0
  8  9  1  0  0  0
  9 10  1  0  0  0
 10 11  1  0  0  0
 11 12  1  0  0  0
 11 26  1  0  0  0
 13 14  1  0  0  0
 13 18  1  0  0  0
 14 15  1  0  0  0
 15 16  1  0  0  0
 16 17  1  0  0  0
 16 24  1  0  0  0
 18 17  1  0  0  0
 18 19  1  0  0  0
 18 22  1  0  0  0
 19 20  1  0  0  0
 20 21  1  0  0  0
 22 23  1  0  0  0
 22 24  1  0  0  0
 23 27  1  0  0  0
 24 25  2  0  0  0
M  CHG 1  11   1
M  END
> <minimizedAffinity>
-6.77505

$$$$
Row5


 27 32  0  0  0  0  0  0  0  0999 V2000
    9.0184   -5.5226   24.9829 C   0  0  0  0  0  0  0  0  0  0  0  0
    7.9083   -4.4198   24.8801 C   0  0  0  0  0  0  0  0  0  0  0  0
    6.5837   -5.1549   24.4482 C   0  0  0  0  0  0  0  0  0  0  0  0
    5.3689   -4.2377   24.1470 C   0  0  0  0  0  0  0  0  0  0  0  0
    5.7292   -2.9193   23.4017 C   0  0  0  0  0  0  0  0  0  0  0  0
    7.1069   -2.2126   23.7506 C   0  0  0  0  0  0  0  0  0  0  0  0
    7.0675   -1.5938   25.2026 C   0  0  0  0  0  0  0  0  0  0  0  0
    6.0244   -0.6507   25.4735 O   0  0  0  0  0  0  0  0  0  0  0  0
    5.9795   -0.5265   26.9055 C   0  0  0  0  0  0  0  0  0  0  0  0
    6.6569   -1.7859   27.4842 C   0  0  0  0  0  0  0  0  0  0  0  0
    6.8219   -2.5901   26.2634 N   0  0  0  0  0  0  0  0  0  0  0  0
    7.7654   -3.7378   26.2912 C   0  0  0  0  0  0  0  0  0  0  0  0
    7.4424   -1.1509   22.5971 C   0  0  0  0  0  0  0  0  0  0  0  0
    6.3853    0.0001   22.3992 C   0  0  0  0  0  0  0  0  0  0  0  0
    6.7847    1.0229   21.2894 C   0  0  0  0  0  0  0  0  0  0  0  0
    8.3038    1.3856   21.3220 C   0  0  0  0  0  0  0  0  0  0  0  0
    9.1441    0.1058   21.1572 C   0  0  0  0  0  0  0  0  0  0  0  0
    8.9307   -0.5785   22.5467 C   0  0  0  0  0  0  0  0  0  0  0  0
    9.9601   -1.7520   22.6803 C   0  0  0  0  0  0  0  0  0  0  0  0
    9.6777   -2.7289   23.8437 C   0  0  0  0  0  0  0  0  0  0  0  0
    8.2308   -3.3319   23.7721 C   0  0  0  0  0  0  0  0  0  0  0  0
    9.1745    0.6912   23.4522 C   0  0  0  0  0  0  0  0  0  0  0  0
   10.5410    0.8846   23.8173 O   0  0  0  0  0  0  0  0  0  0  0  0
    8.7333    1.8130   22.6400 C   0  0  0  0  0  0  0  0  0  0  0  0
    8.6980    3.0849   23.0653 C   0  0  0  0  0  0  0  0  0  0  0  0
    5.9779   -3.1404   26.1044 H   0  0  0  0  0  0  0  0  0  0  0  0
   11.0777    0.9906   23.0162 H   0  0  0  0  0  0  0  0  0  0  0  0
  2  1  1  0  0  0
  2  3  1  0  0  0
  2 12  1  0  0  0
  2 21  1  0  0  0
  3  4  1  0  0  0
  4  5  1  0  0  0
  6  5  1  0  0  0
  6  7  1  0  0  0
  6 13  1  0  0  0
  6 21  1  0  0  0
  7  8  1  0  0  0
  7 11  1  0  0  0
  8  9  1  0  0  0
  9 10  1  0  0  0
 10 11  1  0  0  0
 11 12  1  0  0  0
 11 26  1  0  0  0
 13 14  1  0  0  0
 13 18  1  0  0  0
 14 15  1  0  0  0
 15 16  1  0  0  0
 16 17  1  0  0  0
 16 24  1  0  0  0
 18 17  1  0  0  0
 18 19  1  0  0  0
 18 22  1  0  0  0
 19 20  1  0  0  0
 20 21  1  0  0  0
 22 23  1  0  0  0
 22 24  1  0  0  0
 23 27  1  0  0  0
 24 25  2  0  0  0
M  CHG 1  11   1
M  END
> <minimizedAffinity>
-6.62146

$$$$
Row5


 27 32  0  0  0  0  0  0  0  0999 V2000
   10.6359    2.3452   22.4990 C   0  0  0  0  0  0  0  0  0  0  0  0
    9.2012    1.7244   22.6225 C   0  0  0  0  0  0  0  0  0  0  0  0
    8.2046    2.9301   22.8078 C   0  0  0  0  0  0  0  0  0  0  0  0
    6.7274    2.5489   23.0913 C   0  0  0  0  0  0  0  0  0  0  0  0
    6.5505    1.3248   24.0368 C   0  0  0  0  0  0  0  0  0  0  0  0
    7.6021    0.1402   23.9354 C   0  0  0  0  0  0  0  0  0  0  0  0
    7.4259   -0.6513   22.5808 C   0  0  0  0  0  0  0  0  0  0  0  0
    6.1317   -1.2075   22.3226 O   0  0  0  0  0  0  0  0  0  0  0  0
    6.1259   -1.5365   20.9227 C   0  0  0  0  0  0  0  0  0  0  0  0
    7.2398   -0.6980   20.2624 C   0  0  0  0  0  0  0  0  0  0  0  0
    7.6124    0.1847   21.3789 N   0  0  0  0  0  0  0  0  0  0  0  0
    8.9035    0.9165   21.3052 C   0  0  0  0  0  0  0  0  0  0  0  0
    7.4709   -0.7723   25.2470 C   0  0  0  0  0  0  0  0  0  0  0  0
    6.0630   -1.4407   25.4763 C   0  0  0  0  0  0  0  0  0  0  0  0
    6.0077   -2.3465   26.7467 C   0  0  0  0  0  0  0  0  0  0  0  0
    7.2963   -3.2108   26.9277 C   0  0  0  0  0  0  0  0  0  0  0  0
    8.5277   -2.2904   27.0154 C   0  0  0  0  0  0  0  0  0  0  0  0
    8.6511   -1.8067   25.5337 C   0  0  0  0  0  0  0  0  0  0  0  0
   10.0376   -1.0976   25.3617 C   0  0  0  0  0  0  0  0  0  0  0  0
   10.1886   -0.2834   24.0572 C   0  0  0  0  0  0  0  0  0  0  0  0
    9.0511    0.7847   23.8912 C   0  0  0  0  0  0  0  0  0  0  0  0
    8.4757   -3.2103   24.8332 C   0  0  0  0  0  0  0  0  0  0  0  0
    9.7011   -3.9188   24.6479 O   0  0  0  0  0  0  0  0  0  0  0  0
    7.6180   -3.9655   25.7314 C   0  0  0  0  0  0  0  0  0  0  0  0
    7.1547   -5.1980   25.4740 C   0  0  0  0  0  0  0  0  0  0  0  0
    7.0132    1.0101   21.3717 H   0  0  0  0  0  0  0  0  0  0  0  0
   10.1187   -4.0734   25.5097 H   0  0  0  0  0  0  0  0  0  0  0  0
  2  1  1  0  0  0
  2  3  1  0  0  0
  2 12  1  0  0  0
  2 21  1  0  0  0
  3  4  1  0  0  0
  4  5  1  0  0  0
  6  5  1  0  0  0
  6  7  1  0  0  0
  6 13  1  0  0  0
  6 21  1  0  0  0
  7  8  1  0  0  0
  7 11  1  0  0  0
  8  9  1  0  0  0
  9 10  1  0  0  0
 10 11  1  0  0  0
 11 12  1  0  0  0
 11 26  1  0  0  0
 13 14  1  0  0  0
 13 18  1  0  0  0
 14 15  1  0  0  0
 15 16  1  0  0  0
 16 17  1  0  0  0
 16 24  1  0  0  0
 18 17  1  0  0  0
 18 19  1  0  0  0
 18 22  1  0  0  0
 19 20  1  0  0  0
 20 21  1  0  0  0
 22 23  1  0  0  0
 22 24  1  0  0  0
 23 27  1  0  0  0
 24 25  2  0  0  0
M  CHG 1  11   1
M  END
> <minimizedAffinity>
-6.27981

$$$$
Row6


 27 32  0  0  0  0  0  0  0  0999 V2000
    9.6561   -5.0389   25.4990 C   0  0  0  0  0  0  0  0  0  0  0  0
    8.4546   -4.5857   24.5984 C   0  0  0  0  0  0  0  0  0  0  0  0
    8.1510   -5.7845   23.6241 C   0  0  0  0  0  0  0  0  0  0  0  0
    7.0552   -5.5204   22.5611 C   0  0  0  0  0  0  0  0  0  0  0  0
    7.1041   -4.0922   21.9424 C   0  0  0  0  0  0  0  0  0  0  0  0
    7.5063   -2.8740   22.8816 C   0  0  0  0  0  0  0  0  0  0  0  0
    6.3304   -2.5800   23.8946 C   0  0  0  0  0  0  0  0  0  0  0  0
    6.0727   -3.7177   24.8069 N   0  0  0  0  0  0  0  0  0  0  0  0
    5.0415   -3.5941   25.8438 C   0  0  0  0  0  0  0  0  0  0  0  0
    5.3938   -4.8111   26.7240 C   0  0  0  0  0  0  0  0  0  0  0  0
    6.6808   -5.2953   26.2924 O   0  0  0  0  0  0  0  0  0  0  0  0
    7.2506   -4.2182   25.5383 C   0  0  0  0  0  0  0  0  0  0  0  0
    7.8637   -1.6159   21.9584 C   0  0  0  0  0  0  0  0  0  0  0  0
    6.6824   -1.0959   21.0542 C   0  0  0  0  0  0  0  0  0  0  0  0
    7.0617    0.1540   20.2004 C   0  0  0  0  0  0  0  0  0  0  0  0
    7.9241    1.1770   21.0016 C   0  0  0  0  0  0  0  0  0  0  0  0
    9.2198    0.4938   21.4868 C   0  0  0  0  0  0  0  0  0  0  0  0
    8.6677   -0.4104   22.6351 C   0  0  0  0  0  0  0  0  0  0  0  0
    9.8596   -0.9745   23.4769 C   0  0  0  0  0  0  0  0  0  0  0  0
    9.4524   -2.1072   24.4505 C   0  0  0  0  0  0  0  0  0  0  0  0
    8.7878   -3.3161   23.7037 C   0  0  0  0  0  0  0  0  0  0  0  0
    7.7902    0.6883   23.3487 C   0  0  0  0  0  0  0  0  0  0  0  0
    8.5285    1.5261   24.2421 O   0  0  0  0  0  0  0  0  0  0  0  0
    7.2952    1.5144   22.2632 C   0  0  0  0  0  0  0  0  0  0  0  0
    6.3383    2.4441   22.4013 C   0  0  0  0  0  0  0  0  0  0  0  0
    5.7383   -4.3519   24.0814 H   0  0  0  0  0  0  0  0  0  0  0  0
    9.2306    1.9819   23.7521 H   0  0  0  0  0  0  0  0  0  0  0  0
  2  1  1  0  0  0
  2  3  1  0  0  0
  2 12  1  0  0  0
  2 21  1  0  0  0
  3  4  1  0  0  0
  4  5  1  0  0  0
  6  5  1  0  0  0
  6  7  1  0  0  0
  6 13  1  0  0  0
  6 21  1  0  0  0
  7  8  1  0  0  0
  8  9  1  0  0  0
  8 12  1  0  0  0
  8 26  1  0  0  0
  9 10  1  0  0  0
 10 11  1  0  0  0
 11 12  1  0  0  0
 13 14  1  0  0  0
 13 18  1  0  0  0
 14 15  1  0  0  0
 15 16  1  0  0  0
 16 17  1  0  0  0
 16 24  1  0  0  0
 18 17  1  0  0  0
 18 19  1  0  0  0
 18 22  1  0  0  0
 19 20  1  0  0  0
 20 21  1  0  0  0
 22 23  1  0  0  0
 22 24  1  0  0  0
 23 27  1  0  0  0
 24 25  2  0  0  0
M  CHG 1   8   1
M  END
> <minimizedAffinity>
-7.13861

$$$$
Row6


 27 32  0  0  0  0  0  0  0  0999 V2000
    7.2234    2.7483   23.6415 C   0  0  0  0  0  0  0  0  0  0  0  0
    7.8607    1.4919   22.9520 C   0  0  0  0  0  0  0  0  0  0  0  0
    7.4899    1.5856   21.4248 C   0  0  0  0  0  0  0  0  0  0  0  0
    7.9326    0.3824   20.5549 C   0  0  0  0  0  0  0  0  0  0  0  0
    7.7556   -1.0003   21.2492 C   0  0  0  0  0  0  0  0  0  0  0  0
    8.0267   -1.1022   22.8126 C   0  0  0  0  0  0  0  0  0  0  0  0
    9.5767   -0.9713   23.0876 C   0  0  0  0  0  0  0  0  0  0  0  0
   10.1145    0.3455   22.6754 N   0  0  0  0  0  0  0  0  0  0  0  0
   11.5316    0.6517   22.9036 C   0  0  0  0  0  0  0  0  0  0  0  0
   11.5202    2.1775   22.6762 C   0  0  0  0  0  0  0  0  0  0  0  0
   10.1415    2.5956   22.6371 O   0  0  0  0  0  0  0  0  0  0  0  0
    9.4073    1.5155   23.2267 C   0  0  0  0  0  0  0  0  0  0  0  0
    7.4125   -2.4807   23.3468 C   0  0  0  0  0  0  0  0  0  0  0  0
    8.0388   -3.7798   22.7116 C   0  0  0  0  0  0  0  0  0  0  0  0
    7.4394   -5.1003   23.2880 C   0  0  0  0  0  0  0  0  0  0  0  0
    7.2229   -5.0266   24.8307 C   0  0  0  0  0  0  0  0  0  0  0  0
    6.2698   -3.8600   25.1645 C   0  0  0  0  0  0  0  0  0  0  0  0
    7.2062   -2.6325   24.9254 C   0  0  0  0  0  0  0  0  0  0  0  0
    6.5344   -1.3413   25.4989 C   0  0  0  0  0  0  0  0  0  0  0  0
    7.2317   -0.0303   25.0610 C   0  0  0  0  0  0  0  0  0  0  0  0
    7.2829    0.1174   23.5001 C   0  0  0  0  0  0  0  0  0  0  0  0
    8.4486   -3.1699   25.7341 C   0  0  0  0  0  0  0  0  0  0  0  0
    8.3622   -2.9429   27.1434 O   0  0  0  0  0  0  0  0  0  0  0  0
    8.4327   -4.6032   25.5076 C   0  0  0  0  0  0  0  0  0  0  0  0
    9.4358   -5.4288   25.8411 C   0  0  0  0  0  0  0  0  0  0  0  0
    9.9628    0.2056   21.6765 H   0  0  0  0  0  0  0  0  0  0  0  0
    7.5706   -3.3808   27.4935 H   0  0  0  0  0  0  0  0  0  0  0  0
  2  1  1  0  0  0
  2  3  1  0  0  0
  2 12  1  0  0  0
  2 21  1  0  0  0
  3  4  1  0  0  0
  4  5  1  0  0  0
  6  5  1  0  0  0
  6  7  1  0  0  0
  6 13  1  0  0  0
  6 21  1  0  0  0
  7  8  1  0  0  0
  8  9  1  0  0  0
  8 12  1  0  0  0
  8 26  1  0  0  0
  9 10  1  0  0  0
 10 11  1  0  0  0
 11 12  1  0  0  0
 13 14  1  0  0  0
 13 18  1  0  0  0
 14 15  1  0  0  0
 15 16  1  0  0  0
 16 17  1  0  0  0
 16 24  1  0  0  0
 18 17  1  0  0  0
 18 19  1  0  0  0
 18 22  1  0  0  0
 19 20  1  0  0  0
 20 21  1  0  0  0
 22 23  1  0  0  0
 22 24  1  0  0  0
 23 27  1  0  0  0
 24 25  2  0  0  0
M  CHG 1   8   1
M  END
> <minimizedAffinity>
-7.01186

$$$$
Row6


 27 32  0  0  0  0  0  0  0  0999 V2000
    5.9712   -5.4218   23.3865 C   0  0  0  0  0  0  0  0  0  0  0  0
    6.2995   -4.1574   24.2546 C   0  0  0  0  0  0  0  0  0  0  0  0
    4.9444   -3.7087   24.9187 C   0  0  0  0  0  0  0  0  0  0  0  0
    5.0078   -2.4024   25.7493 C   0  0  0  0  0  0  0  0  0  0  0  0
    5.8944   -1.2907   25.1145 C   0  0  0  0  0  0  0  0  0  0  0  0
    7.2192   -1.7240   24.3495 C   0  0  0  0  0  0  0  0  0  0  0  0
    8.2930   -2.2203   25.3965 C   0  0  0  0  0  0  0  0  0  0  0  0
    7.8478   -3.4243   26.1349 N   0  0  0  0  0  0  0  0  0  0  0  0
    8.7465   -4.0450   27.1152 C   0  0  0  0  0  0  0  0  0  0  0  0
    8.0337   -5.3978   27.3192 C   0  0  0  0  0  0  0  0  0  0  0  0
    7.0369   -5.5183   26.2853 O   0  0  0  0  0  0  0  0  0  0  0  0
    7.4091   -4.5527   25.2941 C   0  0  0  0  0  0  0  0  0  0  0  0
    7.7289   -0.4853   23.4727 C   0  0  0  0  0  0  0  0  0  0  0  0
    8.1048    0.8044   24.2964 C   0  0  0  0  0  0  0  0  0  0  0  0
    8.6331    1.9732   23.4076 C   0  0  0  0  0  0  0  0  0  0  0  0
    9.5906    1.4735   22.2825 C   0  0  0  0  0  0  0  0  0  0  0  0
    8.8500    0.4606   21.3845 C   0  0  0  0  0  0  0  0  0  0  0  0
    8.7985   -0.7875   22.3228 C   0  0  0  0  0  0  0  0  0  0  0  0
    8.3537   -2.0425   21.5014 C   0  0  0  0  0  0  0  0  0  0  0  0
    7.9870   -3.2631   22.3803 C   0  0  0  0  0  0  0  0  0  0  0  0
    6.8393   -2.9336   23.3977 C   0  0  0  0  0  0  0  0  0  0  0  0
   10.3115   -0.7654   22.7661 C   0  0  0  0  0  0  0  0  0  0  0  0
   11.1957   -1.3918   21.8329 O   0  0  0  0  0  0  0  0  0  0  0  0
   10.6479    0.6450   22.8274 C   0  0  0  0  0  0  0  0  0  0  0  0
   11.7783    1.1261   23.3655 C   0  0  0  0  0  0  0  0  0  0  0  0
    7.0869   -2.9600   26.6308 H   0  0  0  0  0  0  0  0  0  0  0  0
   11.1330   -0.9419   20.9758 H   0  0  0  0  0  0  0  0  0  0  0  0
  2  1  1  0  0  0
  2  3  1  0  0  0
  2 12  1  0  0  0
  2 21  1  0  0  0
  3  4  1  0  0  0
  4  5  1  0  0  0
  6  5  1  0  0  0
  6  7  1  0  0  0
  6 13  1  0  0  0
  6 21  1  0  0  0
  7  8  1  0  0  0
  8  9  1  0  0  0
  8 12  1  0  0  0
  8 26  1  0  0  0
  9 10  1  0  0  0
 10 11  1  0  0  0
 11 12  1  0  0  0
 13 14  1  0  0  0
 13 18  1  0  0  0
 14 15  1  0  0  0
 15 16  1  0  0  0
 16 17  1  0  0  0
 16 24  1  0  0  0
 18 17  1  0  0  0
 18 19  1  0  0  0
 18 22  1  0  0  0
 19 20  1  0  0  0
 20 21  1  0  0  0
 22 23  1  0  0  0
 22 24  1  0  0  0
 23 27  1  0  0  0
 24 25  2  0  0  0
M  CHG 1   8   1
M  END
> <minimizedAffinity>
-7.00672

$$$$
Row6


 27 32  0  0  0  0  0  0  0  0999 V2000
    9.9712    1.0457   22.0419 C   0  0  0  0  0  0  0  0  0  0  0  0
    8.4773    0.6803   22.3502 C   0  0  0  0  0  0  0  0  0  0  0  0
    7.7619    2.0259   22.7456 C   0  0  0  0  0  0  0  0  0  0  0  0
    6.2857    1.8903   23.1960 C   0  0  0  0  0  0  0  0  0  0  0  0
    6.0076    0.6447   24.0883 C   0  0  0  0  0  0  0  0  0  0  0  0
    6.7922   -0.7019   23.7737 C   0  0  0  0  0  0  0  0  0  0  0  0
    6.2442   -1.3290   22.4314 C   0  0  0  0  0  0  0  0  0  0  0  0
    6.4759   -0.4508   21.2617 N   0  0  0  0  0  0  0  0  0  0  0  0
    6.0689   -0.9029   19.9260 C   0  0  0  0  0  0  0  0  0  0  0  0
    6.8211    0.1214   19.0514 C   0  0  0  0  0  0  0  0  0  0  0  0
    7.7493    0.8171   19.9067 O   0  0  0  0  0  0  0  0  0  0  0  0
    7.8683   -0.0049   21.0744 C   0  0  0  0  0  0  0  0  0  0  0  0
    6.6407   -1.6842   25.0287 C   0  0  0  0  0  0  0  0  0  0  0  0
    5.1618   -2.1116   25.3657 C   0  0  0  0  0  0  0  0  0  0  0  0
    5.0630   -3.0990   26.5701 C   0  0  0  0  0  0  0  0  0  0  0  0
    6.1878   -4.1790   26.5422 C   0  0  0  0  0  0  0  0  0  0  0  0
    7.5680   -3.4899   26.5753 C   0  0  0  0  0  0  0  0  0  0  0  0
    7.6514   -2.9201   25.1230 C   0  0  0  0  0  0  0  0  0  0  0  0
    9.1103   -2.4352   24.8333 C   0  0  0  0  0  0  0  0  0  0  0  0
    9.2403   -1.5906   23.5423 C   0  0  0  0  0  0  0  0  0  0  0  0
    8.3182   -0.3219   23.5724 C   0  0  0  0  0  0  0  0  0  0  0  0
    7.2078   -4.2320   24.3690 C   0  0  0  0  0  0  0  0  0  0  0  0
    8.2711   -5.1651   24.1598 O   0  0  0  0  0  0  0  0  0  0  0  0
    6.2381   -4.8467   25.2566 C   0  0  0  0  0  0  0  0  0  0  0  0
    5.4507   -5.8768   24.9131 C   0  0  0  0  0  0  0  0  0  0  0  0
    5.8440    0.2892   21.5674 H   0  0  0  0  0  0  0  0  0  0  0  0
    8.6433   -5.4286   25.0160 H   0  0  0  0  0  0  0  0  0  0  0  0
  2  1  1  0  0  0
  2  3  1  0  0  0
  2 12  1  0  0  0
  2 21  1  0  0  0
  3  4  1  0  0  0
  4  5  1  0  0  0
  6  5  1  0  0  0
  6  7  1  0  0  0
  6 13  1  0  0  0
  6 21  1  0  0  0
  7  8  1  0  0  0
  8  9  1  0  0  0
  8 12  1  0  0  0
  8 26  1  0  0  0
  9 10  1  0  0  0
 10 11  1  0  0  0
 11 12  1  0  0  0
 13 14  1  0  0  0
 13 18  1  0  0  0
 14 15  1  0  0  0
 15 16  1  0  0  0
 16 17  1  0  0  0
 16 24  1  0  0  0
 18 17  1  0  0  0
 18 19  1  0  0  0
 18 22  1  0  0  0
 19 20  1  0  0  0
 20 21  1  0  0  0
 22 23  1  0  0  0
 22 24  1  0  0  0
 23 27  1  0  0  0
 24 25  2  0  0  0
M  CHG 1   8   1
M  END
> <minimizedAffinity>
-6.89855

$$$$
Row6


 27 32  0  0  0  0  0  0  0  0999 V2000
    6.7733   -4.0950   28.0148 C   0  0  0  0  0  0  0  0  0  0  0  0
    7.4710   -4.2251   26.6159 C   0  0  0  0  0  0  0  0  0  0  0  0
    8.2177   -5.6111   26.6175 C   0  0  0  0  0  0  0  0  0  0  0  0
    9.0713   -5.9114   25.3599 C   0  0  0  0  0  0  0  0  0  0  0  0
    9.8536   -4.6794   24.8165 C   0  0  0  0  0  0  0  0  0  0  0  0
    9.1625   -3.2496   24.8945 C   0  0  0  0  0  0  0  0  0  0  0  0
    7.9828   -3.1775   23.8463 C   0  0  0  0  0  0  0  0  0  0  0  0
    6.9089   -4.1550   24.1362 N   0  0  0  0  0  0  0  0  0  0  0  0
    5.7137   -4.1899   23.2851 C   0  0  0  0  0  0  0  0  0  0  0  0
    4.7799   -5.0487   24.1629 C   0  0  0  0  0  0  0  0  0  0  0  0
    5.3924   -5.1576   25.4629 O   0  0  0  0  0  0  0  0  0  0  0  0
    6.3658   -4.1068   25.5057 C   0  0  0  0  0  0  0  0  0  0  0  0
   10.2810   -2.1299   24.6531 C   0  0  0  0  0  0  0  0  0  0  0  0
   10.9939   -2.1919   23.2491 C   0  0  0  0  0  0  0  0  0  0  0  0
   12.0480   -1.0603   23.0407 C   0  0  0  0  0  0  0  0  0  0  0  0
   11.5574    0.3130   23.5937 C   0  0  0  0  0  0  0  0  0  0  0  0
   11.2551    0.1858   25.1014 C   0  0  0  0  0  0  0  0  0  0  0  0
    9.9220   -0.6283   25.0703 C   0  0  0  0  0  0  0  0  0  0  0  0
    9.2665   -0.6149   26.4907 C   0  0  0  0  0  0  0  0  0  0  0  0
    8.1044   -1.6254   26.6491 C   0  0  0  0  0  0  0  0  0  0  0  0
    8.5583   -3.0974   26.3522 C   0  0  0  0  0  0  0  0  0  0  0  0
    9.1878    0.2347   23.9737 C   0  0  0  0  0  0  0  0  0  0  0  0
    8.5612    1.4120   24.4897 O   0  0  0  0  0  0  0  0  0  0  0  0
   10.2471    0.6474   23.0718 C   0  0  0  0  0  0  0  0  0  0  0  0
   10.0377    1.2249   21.8795 C   0  0  0  0  0  0  0  0  0  0  0  0
    7.4747   -4.9822   23.9463 H   0  0  0  0  0  0  0  0  0  0  0  0
    9.2290    1.9759   24.9103 H   0  0  0  0  0  0  0  0  0  0  0  0
  2  1  1  0  0  0
  2  3  1  0  0  0
  2 12  1  0  0  0
  2 21  1  0  0  0
  3  4  1  0  0  0
  4  5  1  0  0  0
  6  5  1  0  0  0
  6  7  1  0  0  0
  6 13  1  0  0  0
  6 21  1  0  0  0
  7  8  1  0  0  0
  8  9  1  0  0  0
  8 12  1  0  0  0
  8 26  1  0  0  0
  9 10  1  0  0  0
 10 11  1  0  0  0
 11 12  1  0  0  0
 13 14  1  0  0  0
 13 18  1  0  0  0
 14 15  1  0  0  0
 15 16  1  0  0  0
 16 17  1  0  0  0
 16 24  1  0  0  0
 18 17  1  0  0  0
 18 19  1  0  0  0
 18 22  1  0  0  0
 19 20  1  0  0  0
 20 21  1  0  0  0
 22 23  1  0  0  0
 22 24  1  0  0  0
 23 27  1  0  0  0
 24 25  2  0  0  0
M  CHG 1   8   1
M  END
> <minimizedAffinity>
-6.86730

$$$$
Row6


 27 32  0  0  0  0  0  0  0  0999 V2000
    6.5929    0.8789   20.3921 C   0  0  0  0  0  0  0  0  0  0  0  0
    7.4516    0.6111   21.6771 C   0  0  0  0  0  0  0  0  0  0  0  0
    8.8791    1.2108   21.3922 C   0  0  0  0  0  0  0  0  0  0  0  0
    9.9381    0.9687   22.4969 C   0  0  0  0  0  0  0  0  0  0  0  0
    9.8742   -0.4502   23.1354 C   0  0  0  0  0  0  0  0  0  0  0  0
    8.4486   -1.1231   23.3430 C   0  0  0  0  0  0  0  0  0  0  0  0
    7.6797   -0.3791   24.5052 C   0  0  0  0  0  0  0  0  0  0  0  0
    7.4067    1.0405   24.1838 N   0  0  0  0  0  0  0  0  0  0  0  0
    6.6577    1.8669   25.1377 C   0  0  0  0  0  0  0  0  0  0  0  0
    6.3174    3.0756   24.2416 C   0  0  0  0  0  0  0  0  0  0  0  0
    6.6294    2.7054   22.8842 O   0  0  0  0  0  0  0  0  0  0  0  0
    6.7223    1.2755   22.8996 C   0  0  0  0  0  0  0  0  0  0  0  0
    8.6597   -2.6833   23.6333 C   0  0  0  0  0  0  0  0  0  0  0  0
    9.4891   -3.0132   24.9320 C   0  0  0  0  0  0  0  0  0  0  0  0
    9.6377   -4.5436   25.1982 C   0  0  0  0  0  0  0  0  0  0  0  0
    8.3186   -5.3241   24.9097 C   0  0  0  0  0  0  0  0  0  0  0  0
    7.9032   -5.1127   23.4388 C   0  0  0  0  0  0  0  0  0  0  0  0
    7.3862   -3.6391   23.4841 C   0  0  0  0  0  0  0  0  0  0  0  0
    6.6281   -3.3088   22.1561 C   0  0  0  0  0  0  0  0  0  0  0  0
    6.3305   -1.8012   21.9682 C   0  0  0  0  0  0  0  0  0  0  0  0
    7.6377   -0.9344   21.9938 C   0  0  0  0  0  0  0  0  0  0  0  0
    6.4806   -3.7856   24.7665 C   0  0  0  0  0  0  0  0  0  0  0  0
    5.1842   -4.3268   24.4990 O   0  0  0  0  0  0  0  0  0  0  0  0
    7.1965   -4.7275   25.6069 C   0  0  0  0  0  0  0  0  0  0  0  0
    6.8866   -4.9800   26.8872 C   0  0  0  0  0  0  0  0  0  0  0  0
    8.3841    1.3324   24.1891 H   0  0  0  0  0  0  0  0  0  0  0  0
    5.2768   -5.2067   24.1013 H   0  0  0  0  0  0  0  0  0  0  0  0
  2  1  1  0  0  0
  2  3  1  0  0  0
  2 12  1  0  0  0
  2 21  1  0  0  0
  3  4  1  0  0  0
  4  5  1  0  0  0
  6  5  1  0  0  0
  6  7  1  0  0  0
  6 13  1  0  0  0
  6 21  1  0  0  0
  7  8  1  0  0  0
  8  9  1  0  0  0
  8 12  1  0  0  0
  8 26  1  0  0  0
  9 10  1  0  0  0
 10 11  1  0  0  0
 11 12  1  0  0  0
 13 14  1  0  0  0
 13 18  1  0  0  0
 14 15  1  0  0  0
 15 16  1  0  0  0
 16 17  1  0  0  0
 16 24  1  0  0  0
 18 17  1  0  0  0
 18 19  1  0  0  0
 18 22  1  0  0  0
 19 20  1  0  0  0
 20 21  1  0  0  0
 22 23  1  0  0  0
 22 24  1  0  0  0
 23 27  1  0  0  0
 24 25  2  0  0  0
M  CHG 1   8   1
M  END
> <minimizedAffinity>
-6.71905

$$$$
Row6


 27 32  0  0  0  0  0  0  0  0999 V2000
    6.7007   -3.4456   27.7366 C   0  0  0  0  0  0  0  0  0  0  0  0
    7.3319   -3.5129   26.3023 C   0  0  0  0  0  0  0  0  0  0  0  0
    8.6467   -4.3688   26.4338 C   0  0  0  0  0  0  0  0  0  0  0  0
    9.5004   -4.4838   25.1460 C   0  0  0  0  0  0  0  0  0  0  0  0
    9.5866   -3.1645   24.3232 C   0  0  0  0  0  0  0  0  0  0  0  0
    8.3023   -2.2294   24.2560 C   0  0  0  0  0  0  0  0  0  0  0  0
    7.1975   -2.9164   23.3601 C   0  0  0  0  0  0  0  0  0  0  0  0
    6.7260   -4.1997   23.9293 N   0  0  0  0  0  0  0  0  0  0  0  0
    5.6646   -4.9477   23.2454 C   0  0  0  0  0  0  0  0  0  0  0  0
    5.2786   -5.9478   24.3548 C   0  0  0  0  0  0  0  0  0  0  0  0
    5.9100   -5.5039   25.5719 O   0  0  0  0  0  0  0  0  0  0  0  0
    6.2687   -4.1379   25.3292 C   0  0  0  0  0  0  0  0  0  0  0  0
    8.7469   -0.7930   23.7064 C   0  0  0  0  0  0  0  0  0  0  0  0
    9.3592   -0.7954   22.2544 C   0  0  0  0  0  0  0  0  0  0  0  0
    9.7425    0.6282   21.7429 C   0  0  0  0  0  0  0  0  0  0  0  0
    8.6765    1.7003   22.1259 C   0  0  0  0  0  0  0  0  0  0  0  0
    8.5185    1.7482   23.6600 C   0  0  0  0  0  0  0  0  0  0  0  0
    7.7315    0.4239   23.9200 C   0  0  0  0  0  0  0  0  0  0  0  0
    7.1934    0.4139   25.3889 C   0  0  0  0  0  0  0  0  0  0  0  0
    6.6559   -0.9644   25.8451 C   0  0  0  0  0  0  0  0  0  0  0  0
    7.7446   -2.0883   25.7333 C   0  0  0  0  0  0  0  0  0  0  0  0
    6.6414    0.6169   22.7971 C   0  0  0  0  0  0  0  0  0  0  0  0
    5.5476    1.4495   23.1914 O   0  0  0  0  0  0  0  0  0  0  0  0
    7.3488    1.2839   21.7198 C   0  0  0  0  0  0  0  0  0  0  0  0
    6.8529    1.4524   20.4850 C   0  0  0  0  0  0  0  0  0  0  0  0
    7.6104   -4.6928   23.8063 H   0  0  0  0  0  0  0  0  0  0  0  0
    5.8806    2.3279   23.4332 H   0  0  0  0  0  0  0  0  0  0  0  0
  2  1  1  0  0  0
  2  3  1  0  0  0
  2 12  1  0  0  0
  2 21  1  0  0  0
  3  4  1  0  0  0
  4  5  1  0  0  0
  6  5  1  0  0  0
  6  7  1  0  0  0
  6 13  1  0  0  0
  6 21  1  0  0  0
  7  8  1  0  0  0
  8  9  1  0  0  0
  8 12  1  0  0  0
  8 26  1  0  0  0
  9 10  1  0  0  0
 10 11  1  0  0  0
 11 12  1  0  0  0
 13 14  1  0  0  0
 13 18  1  0  0  0
 14 15  1  0  0  0
 15 16  1  0  0  0
 16 17  1  0  0  0
 16 24  1  0  0  0
 18 17  1  0  0  0
 18 19  1  0  0  0
 18 22  1  0  0  0
 19 20  1  0  0  0
 20 21  1  0  0  0
 22 23  1  0  0  0
 22 24  1  0  0  0
 23 27  1  0  0  0
 24 25  2  0  0  0
M  CHG 1   8   1
M  END
> <minimizedAffinity>
-6.27371

$$$$
Row6


 27 32  0  0  0  0  0  0  0  0999 V2000
    4.9858   -1.4337   25.9958 C   0  0  0  0  0  0  0  0  0  0  0  0
    6.4964   -1.4176   26.4178 C   0  0  0  0  0  0  0  0  0  0  0  0
    6.5701   -0.6320   27.7801 C   0  0  0  0  0  0  0  0  0  0  0  0
    7.9955   -0.3996   28.3409 C   0  0  0  0  0  0  0  0  0  0  0  0
    9.0537   -0.0459   27.2546 C   0  0  0  0  0  0  0  0  0  0  0  0
    8.9438   -0.7504   25.8334 C   0  0  0  0  0  0  0  0  0  0  0  0
    9.3418   -2.2731   25.9688 C   0  0  0  0  0  0  0  0  0  0  0  0
    8.4218   -3.0210   26.8560 N   0  0  0  0  0  0  0  0  0  0  0  0
    8.6206   -4.4614   27.0553 C   0  0  0  0  0  0  0  0  0  0  0  0
    7.2727   -4.8344   27.7063 C   0  0  0  0  0  0  0  0  0  0  0  0
    6.3926   -3.7039   27.5498 O   0  0  0  0  0  0  0  0  0  0  0  0
    6.9909   -2.9051   26.5215 C   0  0  0  0  0  0  0  0  0  0  0  0
    9.8683    0.0465   24.7975 C   0  0  0  0  0  0  0  0  0  0  0  0
   11.4031    0.0683   25.1541 C   0  0  0  0  0  0  0  0  0  0  0  0
   12.2721    0.8213   24.0991 C   0  0  0  0  0  0  0  0  0  0  0  0
   11.8271    0.5105   22.6371 C   0  0  0  0  0  0  0  0  0  0  0  0
   10.3508    0.9173   22.4478 C   0  0  0  0  0  0  0  0  0  0  0  0
    9.6252   -0.2177   23.2390 C   0  0  0  0  0  0  0  0  0  0  0  0
    8.0927   -0.1767   22.9271 C   0  0  0  0  0  0  0  0  0  0  0  0
    7.2416   -1.0586   23.8729 C   0  0  0  0  0  0  0  0  0  0  0  0
    7.4279   -0.6590   25.3783 C   0  0  0  0  0  0  0  0  0  0  0  0
   10.4147   -1.4313   22.6145 C   0  0  0  0  0  0  0  0  0  0  0  0
    9.9039   -1.8632   21.3505 O   0  0  0  0  0  0  0  0  0  0  0  0
   11.7562   -0.9188   22.4061 C   0  0  0  0  0  0  0  0  0  0  0  0
   12.8117   -1.6817   22.0853 C   0  0  0  0  0  0  0  0  0  0  0  0
    8.6864   -2.5291   27.7095 H   0  0  0  0  0  0  0  0  0  0  0  0
    9.9432   -1.1290   20.7179 H   0  0  0  0  0  0  0  0  0  0  0  0
  2  1  1  0  0  0
  2  3  1  0  0  0
  2 12  1  0  0  0
  2 21  1  0  0  0
  3  4  1  0  0  0
  4  5  1  0  0  0
  6  5  1  0  0  0
  6  7  1  0  0  0
  6 13  1  0  0  0
  6 21  1  0  0  0
  7  8  1  0  0  0
  8  9  1  0  0  0
  8 12  1  0  0  0
  8 26  1  0  0  0
  9 10  1  0  0  0
 10 11  1  0  0  0
 11 12  1  0  0  0
 13 14  1  0  0  0
 13 18  1  0  0  0
 14 15  1  0  0  0
 15 16  1  0  0  0
 16 17  1  0  0  0
 16 24  1  0  0  0
 18 17  1  0  0  0
 18 19  1  0  0  0
 18 22  1  0  0  0
 19 20  1  0  0  0
 20 21  1  0  0  0
 22 23  1  0  0  0
 22 24  1  0  0  0
 23 27  1  0  0  0
 24 25  2  0  0  0
M  CHG 1   8   1
M  END
> <minimizedAffinity>
-6.21912

$$$$
Row6


 27 32  0  0  0  0  0  0  0  0999 V2000
    5.7953   -4.9782   22.2520 C   0  0  0  0  0  0  0  0  0  0  0  0
    6.1086   -3.9252   23.3714 C   0  0  0  0  0  0  0  0  0  0  0  0
    5.0380   -4.1471   24.5042 C   0  0  0  0  0  0  0  0  0  0  0  0
    5.0902   -3.1390   25.6795 C   0  0  0  0  0  0  0  0  0  0  0  0
    5.3741   -1.6714   25.2429 C   0  0  0  0  0  0  0  0  0  0  0  0
    6.3759   -1.4219   24.0337 C   0  0  0  0  0  0  0  0  0  0  0  0
    7.8505   -1.7499   24.4957 C   0  0  0  0  0  0  0  0  0  0  0  0
    8.0227   -3.1727   24.8681 N   0  0  0  0  0  0  0  0  0  0  0  0
    9.3458   -3.6583   25.2773 C   0  0  0  0  0  0  0  0  0  0  0  0
    9.1137   -5.1812   25.1960 C   0  0  0  0  0  0  0  0  0  0  0  0
    7.8626   -5.3891   24.5115 O   0  0  0  0  0  0  0  0  0  0  0  0
    7.5879   -4.1473   23.8513 C   0  0  0  0  0  0  0  0  0  0  0  0
    6.2008    0.0879   23.5309 C   0  0  0  0  0  0  0  0  0  0  0  0
    6.5339    1.1911   24.6058 C   0  0  0  0  0  0  0  0  0  0  0  0
    6.3879    2.6468   24.0630 C   0  0  0  0  0  0  0  0  0  0  0  0
    6.9419    2.7947   22.6127 C   0  0  0  0  0  0  0  0  0  0  0  0
    6.1876    1.8340   21.6699 C   0  0  0  0  0  0  0  0  0  0  0  0
    6.7977    0.4599   22.0946 C   0  0  0  0  0  0  0  0  0  0  0  0
    6.3955   -0.6363   21.0533 C   0  0  0  0  0  0  0  0  0  0  0  0
    6.6947   -2.0806   21.5235 C   0  0  0  0  0  0  0  0  0  0  0  0
    5.9716   -2.4231   22.8729 C   0  0  0  0  0  0  0  0  0  0  0  0
    8.3119    0.8988   22.0704 C   0  0  0  0  0  0  0  0  0  0  0  0
    8.9033    0.8605   20.7689 O   0  0  0  0  0  0  0  0  0  0  0  0
    8.2934    2.2799   22.5155 C   0  0  0  0  0  0  0  0  0  0  0  0
    9.3898    2.9797   22.8427 C   0  0  0  0  0  0  0  0  0  0  0  0
    7.4163   -3.1342   25.6875 H   0  0  0  0  0  0  0  0  0  0  0  0
    8.4154    1.4