Row0
 OpenBabel08252322323D

 20 21  0  0  0  0  0  0  0  0999 V2000
   -4.2602    0.6363   -1.0257 C   0  0  0  0  0  0  0  0  0  0  0  0
   -2.8543    0.6082   -1.0515 C   0  0  0  0  0  0  0  0  0  0  0  0
   -2.1327    1.2145    0.0013 C   0  0  0  0  0  0  0  0  0  0  0  0
   -2.8431    1.8335    1.0551 C   0  0  0  0  0  0  0  0  0  0  0  0
   -4.2487    1.8295    1.0324 C   0  0  0  0  0  0  0  0  0  0  0  0
   -4.9080    1.2381    0.0036 N   0  0  0  0  0  0  0  0  0  0  0  0
   -0.7204    1.2020    0.0005 C   0  0  0  0  0  0  0  0  0  0  0  0
   -0.0147   -0.0229   -0.0039 C   0  0  0  0  0  0  0  0  0  0  0  0
    1.3910   -0.0068   -0.0022 C   0  0  0  0  0  0  0  0  0  0  0  0
    2.0549    1.1773   -0.0000 N   0  0  0  0  0  0  0  0  0  0  0  0
    1.4117    2.3721    0.0021 C   0  0  0  0  0  0  0  0  0  0  0  0
    0.0060    2.4140    0.0040 C   0  0  0  0  0  0  0  0  0  0  0  0
   -4.7991    0.1992   -1.7896 H   0  0  0  0  0  0  0  0  0  0  0  0
   -2.3555    0.1501   -1.8302 H   0  0  0  0  0  0  0  0  0  0  0  0
   -2.3353    2.2835    1.8327 H   0  0  0  0  0  0  0  0  0  0  0  0
   -4.7789    2.2757    1.7971 H   0  0  0  0  0  0  0  0  0  0  0  0
   -0.5260   -0.9193   -0.0083 H   0  0  0  0  0  0  0  0  0  0  0  0
    1.9177   -0.8943   -0.0026 H   0  0  0  0  0  0  0  0  0  0  0  0
    1.9541    3.2501    0.0023 H   0  0  0  0  0  0  0  0  0  0  0  0
   -0.4892    3.3194    0.0079 H   0  0  0  0  0  0  0  0  0  0  0  0
  1  2  2  0  0  0  0
  1  6  1  0  0  0  0
  1 13  1  0  0  0  0
  2  3  1  0  0  0  0
  2 14  1  0  0  0  0
  3  4  2  0  0  0  0
  3  7  1  0  0  0  0
  4  5  1  0  0  0  0
  4 15  1  0  0  0  0
  5  6  2  0  0  0  0
  5 16  1  0  0  0  0
  7  8  2  0  0  0  0
  7 12  1  0  0  0  0
  8  9  1  0  0  0  0
  8 17  1  0  0  0  0
  9 10  2  0  0  0  0
  9 18  1  0  0  0  0
 10 11  1  0  0  0  0
 11 12  2  0  0  0  0
 11 19  1  0  0  0  0
 12 20  1  0  0  0  0
M  END
$$$$
Row1
 OpenBabel08252322323D

 20 21  0  0  0  0  0  0  0  0999 V2000
   -1.6633    3.9642    1.0808 C   0  0  0  0  0  0  0  0  0  0  0  0
   -2.2243    2.5159    1.1516 C   0  0  0  0  0  0  0  0  0  0  0  0
   -1.8097    1.5837   -0.0195 C   0  0  0  0  0  0  0  0  0  0  0  0
   -0.4295    1.2019    0.0017 N   0  0  0  0  0  0  0  0  0  0  0  0
    0.0095   -0.0154    0.0055 N   0  0  0  0  0  0  0  0  0  0  0  0
    1.3046    0.0021    0.0089 N   0  0  0  0  0  0  0  0  0  0  0  0
    1.7290    1.2232    0.0088 N   0  0  0  0  0  0  0  0  0  0  0  0
    0.6440    2.0088    0.0007 C   0  0  0  0  0  0  0  0  0  0  0  0
    0.6514    3.4839   -0.0099 C   0  0  0  0  0  0  0  0  0  0  0  0
   -0.1193    4.0952    1.1911 C   0  0  0  0  0  0  0  0  0  0  0  0
   -2.0987    4.5248    1.8814 H   0  0  0  0  0  0  0  0  0  0  0  0
   -1.9179    4.3281    0.1073 H   0  0  0  0  0  0  0  0  0  0  0  0
   -3.2926    2.5758    1.1638 H   0  0  0  0  0  0  0  0  0  0  0  0
   -1.8083    2.0812    2.0364 H   0  0  0  0  0  0  0  0  0  0  0  0
   -2.0040    2.0931   -0.9402 H   0  0  0  0  0  0  0  0  0  0  0  0
   -2.3815    0.6851    0.0822 H   0  0  0  0  0  0  0  0  0  0  0  0
    0.1957    3.8221   -0.9170 H   0  0  0  0  0  0  0  0  0  0  0  0
    1.6702    3.8027    0.0637 H   0  0  0  0  0  0  0  0  0  0  0  0
    0.1981    3.5975    2.0835 H   0  0  0  0  0  0  0  0  0  0  0  0
    0.1035    5.1417    1.2028 H   0  0  0  0  0  0  0  0  0  0  0  0
  1  2  1  0  0  0  0
  1 10  1  0  0  0  0
  1 11  1  0  0  0  0
  1 12  1  0  0  0  0
  2  3  1  0  0  0  0
  2 13  1  0  0  0  0
  2 14  1  0  0  0  0
  3  4  1  0  0  0  0
  3 15  1  0  0  0  0
  3 16  1  0  0  0  0
  4  5  1  0  0  0  0
  4  8  1  0  0  0  0
  5  6  2  0  0  0  0
  6  7  1  0  0  0  0
  7  8  2  0  0  0  0
  8  9  1  0  0  0  0
  9 10  1  0  0  0  0
  9 17  1  0  0  0  0
  9 18  1  0  0  0  0
 10 19  1  0  0  0  0
 10 20  1  0  0  0  0
M  END
$$$$
Row2
 OpenBabel08252322323D

 18 18  0  0  0  0  0  0  0  0999 V2000
   -0.6068    1.1658    0.2452 C   0  0  0  0  0  0  0  0  0  0  0  0
    0.5825    0.3618    0.8328 C   0  0  0  0  0  0  0  0  0  0  0  0
    1.3758   -0.3573   -0.2872 C   0  0  0  0  0  0  0  0  0  0  0  0
    1.7911    0.5959   -1.3416 N   0  3  0  0  0  0  0  0  0  0  0  0
    0.6651    1.3234   -1.9727 C   0  0  0  0  0  0  0  0  0  0  0  0
   -0.1712    2.0941   -0.9199 C   0  0  0  0  0  0  0  0  0  0  0  0
   -1.0340    1.7654    1.0217 H   0  0  0  0  0  0  0  0  0  0  0  0
   -1.3164    0.4649   -0.1422 H   0  0  0  0  0  0  0  0  0  0  0  0
    0.2062   -0.3682    1.5187 H   0  0  0  0  0  0  0  0  0  0  0  0
    1.2399    1.0426    1.3321 H   0  0  0  0  0  0  0  0  0  0  0  0
    0.7572   -1.1135   -0.7235 H   0  0  0  0  0  0  0  0  0  0  0  0
    2.2536   -0.7921    0.1432 H   0  0  0  0  0  0  0  0  0  0  0  0
    2.2846    0.0764   -2.0675 H   0  0  0  0  0  0  0  0  0  0  0  0
    2.3801    1.2964   -0.8913 H   0  0  0  0  0  0  0  0  0  0  0  0
    0.0326    0.6198   -2.4725 H   0  0  0  0  0  0  0  0  0  0  0  0
    1.0682    2.0313   -2.6664 H   0  0  0  0  0  0  0  0  0  0  0  0
    0.4182    2.8952   -0.5253 H   0  0  0  0  0  0  0  0  0  0  0  0
   -1.0511    2.4708   -1.3981 H   0  0  0  0  0  0  0  0  0  0  0  0
  1  2  1  0  0  0  0
  1  6  1  0  0  0  0
  1  7  1  0  0  0  0
  1  8  1  0  0  0  0
  2  3  1  0  0  0  0
  2  9  1  0  0  0  0
  2 10  1  0  0  0  0
  3  4  1  0  0  0  0
  3 11  1  0  0  0  0
  3 12  1  0  0  0  0
  4  5  1  0  0  0  0
  4 13  1  0  0  0  0
  4 14  1  0  0  0  0
  5  6  1  0  0  0  0
  5 15  1  0  0  0  0
  5 16  1  0  0  0  0
  6 17  1  0  0  0  0
  6 18  1  0  0  0  0
M  CHG  1   4   1
M  END
$$$$
Row3
 OpenBabel08252322323D

 45 48  0  0  1  0  0  0  0  0999 V2000
   -0.9519   -0.0170    1.7107 C   0  0  0  0  0  0  0  0  0  0  0  0
   -0.0906   -0.6864    0.6116 C   0  0  0  0  0  0  0  0  0  0  0  0
   -0.1484    0.1072   -0.7178 C   0  0  0  0  0  0  0  0  0  0  0  0
    0.1961    1.5547   -0.5261 N   0  3  1  0  0  0  0  0  0  0  0  0
    0.2568    2.2875   -1.8368 C   0  0  0  0  0  0  0  0  0  0  0  0
    0.5136    3.8223   -1.7013 C   0  0  1  0  0  0  0  0  0  0  0  0
   -0.5666    4.4153   -0.7547 C   0  0  0  0  0  0  0  0  0  0  0  0
   -0.3684    3.7721    0.6447 C   0  0  2  0  0  0  0  0  0  0  0  0
    1.0518    4.1687    1.1719 C   0  0  0  0  0  0  0  0  0  0  0  0
    2.1577    3.7417    0.2517 N   0  3  2  0  0  0  0  0  0  0  0  0
    3.5401    4.0270    0.7562 C   0  0  0  0  0  0  0  0  0  0  0  0
    3.9980    5.4926    0.5346 C   0  0  0  0  0  0  0  0  0  0  0  0
    3.8132    5.9154   -0.9443 C   0  0  0  0  0  0  0  0  0  0  0  0
    2.3717    5.6364   -1.4367 C   0  0  0  0  0  0  0  0  0  0  0  0
    1.9612    4.1483   -1.1870 C   0  0  2  0  0  0  0  0  0  0  0  0
   -0.6616    2.2313    0.5156 C   0  0  2  0  0  0  0  0  0  0  0  0
   -0.5729    1.4759    1.8778 C   0  0  0  0  0  0  0  0  0  0  0  0
   -0.7921   -0.5250    2.6388 H   0  0  0  0  0  0  0  0  0  0  0  0
   -1.9807   -0.0783    1.4233 H   0  0  0  0  0  0  0  0  0  0  0  0
   -0.4545   -1.6780    0.4406 H   0  0  0  0  0  0  0  0  0  0  0  0
    0.9253   -0.7058    0.9469 H   0  0  0  0  0  0  0  0  0  0  0  0
   -1.1383    0.0382   -1.1181 H   0  0  0  0  0  0  0  0  0  0  0  0
    0.5711   -0.3171   -1.3865 H   0  0  0  0  0  0  0  0  0  0  0  0
    1.1396    1.5909   -0.1402 H   0  0  0  0  0  0  0  0  0  0  0  0
   -0.6751    2.1467   -2.3434 H   0  0  0  0  0  0  0  0  0  0  0  0
    1.0875    1.8834   -2.3767 H   0  0  0  0  0  0  0  0  0  0  0  0
    0.4427    4.2707   -2.6702 H   0  0  0  0  0  0  0  0  0  0  0  0
   -1.5433    4.1860   -1.1267 H   0  0  0  0  0  0  0  0  0  0  0  0
   -0.4718    5.4795   -0.6961 H   0  0  0  0  0  0  0  0  0  0  0  0
   -1.0499    4.1302    1.3878 H   0  0  0  0  0  0  0  0  0  0  0  0
    1.2033    3.7065    2.1250 H   0  0  0  0  0  0  0  0  0  0  0  0
    1.0831    5.2363    1.2370 H   0  0  0  0  0  0  0  0  0  0  0  0
    2.0826    2.7245    0.2577 H   0  0  0  0  0  0  0  0  0  0  0  0
    4.2245    3.3795    0.2490 H   0  0  0  0  0  0  0  0  0  0  0  0
    3.5262    3.8615    1.8132 H   0  0  0  0  0  0  0  0  0  0  0  0
    5.0318    5.5794    0.7966 H   0  0  0  0  0  0  0  0  0  0  0  0
    3.4000    6.1328    1.1490 H   0  0  0  0  0  0  0  0  0  0  0  0
    4.5011    5.3655   -1.5520 H   0  0  0  0  0  0  0  0  0  0  0  0
    3.9966    6.9669   -1.0190 H   0  0  0  0  0  0  0  0  0  0  0  0
    2.3163    5.8415   -2.4854 H   0  0  0  0  0  0  0  0  0  0  0  0
    1.7015    6.2667   -0.8905 H   0  0  0  0  0  0  0  0  0  0  0  0
    2.6269    3.5513   -1.7746 H   0  0  0  0  0  0  0  0  0  0  0  0
   -1.6772    2.1729    0.1838 H   0  0  0  0  0  0  0  0  0  0  0  0
    0.4278    1.5432    2.2507 H   0  0  0  0  0  0  0  0  0  0  0  0
   -1.2596    1.9272    2.5631 H   0  0  0  0  0  0  0  0  0  0  0  0
  1  2  1  0  0  0  0
  1 17  1  0  0  0  0
  1 18  1  0  0  0  0
  1 19  1  0  0  0  0
  2  3  1  0  0  0  0
  2 20  1  0  0  0  0
  2 21  1  0  0  0  0
  3  4  1  0  0  0  0
  3 22  1  0  0  0  0
  3 23  1  0  0  0  0
  4  5  1  0  0  0  0
  4 16  1  0  0  0  0
  4 24  1  1  0  0  0
  5  6  1  0  0  0  0
  5 25  1  0  0  0  0
  5 26  1  0  0  0  0
  6  7  1  0  0  0  0
  6 15  1  0  0  0  0
  6 27  1  6  0  0  0
  7  8  1  0  0  0  0
  7 28  1  0  0  0  0
  7 29  1  0  0  0  0
  8  9  1  0  0  0  0
  8 16  1  0  0  0  0
  8 30  1  1  0  0  0
  9 10  1  0  0  0  0
  9 31  1  0  0  0  0
  9 32  1  0  0  0  0
 10 11  1  0  0  0  0
 10 15  1  0  0  0  0
 10 33  1  6  0  0  0
 11 12  1  0  0  0  0
 11 34  1  0  0  0  0
 11 35  1  0  0  0  0
 12 13  1  0  0  0  0
 12 36  1  0  0  0  0
 12 37  1  0  0  0  0
 13 14  1  0  0  0  0
 13 38  1  0  0  0  0
 13 39  1  0  0  0  0
 14 15  1  0  0  0  0
 14 40  1  0  0  0  0
 14 41  1  0  0  0  0
 15 42  1  6  0  0  0
 16 17  1  0  0  0  0
 16 43  1  6  0  0  0
 17 44  1  0  0  0  0
 17 45  1  0  0  0  0
M  CHG  2   4   1  10   1
M  END
$$$$
Row4
 OpenBabel08252322323D

 22 24  0  0  0  0  0  0  0  0999 V2000
   -1.8514    6.1700   -0.6153 C   0  0  0  0  0  0  0  0  0  0  0  0
   -0.8212    5.9897    0.3244 C   0  0  0  0  0  0  0  0  0  0  0  0
   -0.2609    4.7641    0.4888 N   0  0  0  0  0  0  0  0  0  0  0  0
   -0.6454    3.6662   -0.2202 C   0  0  0  0  0  0  0  0  0  0  0  0
   -1.6860    3.7997   -1.1843 C   0  0  0  0  0  0  0  0  0  0  0  0
   -2.0998    2.6754   -1.9297 C   0  0  0  0  0  0  0  0  0  0  0  0
   -1.4919    1.4262   -1.7266 C   0  0  0  0  0  0  0  0  0  0  0  0
   -0.4605    1.2807   -0.7749 C   0  0  0  0  0  0  0  0  0  0  0  0
    0.1654    0.0339   -0.5537 C   0  0  0  0  0  0  0  0  0  0  0  0
    1.1908   -0.0839    0.4005 C   0  0  0  0  0  0  0  0  0  0  0  0
    1.5788    1.0563    1.1259 C   0  0  0  0  0  0  0  0  0  0  0  0
    0.9645    2.2455    0.8981 N   0  0  0  0  0  0  0  0  0  0  0  0
   -0.0330    2.4078   -0.0155 C   0  0  0  0  0  0  0  0  0  0  0  0
   -2.2827    5.0662   -1.3713 C   0  0  0  0  0  0  0  0  0  0  0  0
   -2.2839    7.0976   -0.7478 H   0  0  0  0  0  0  0  0  0  0  0  0
   -0.4913    6.7883    0.8887 H   0  0  0  0  0  0  0  0  0  0  0  0
   -2.8535    2.7718   -2.6281 H   0  0  0  0  0  0  0  0  0  0  0  0
   -1.8013    0.6097   -2.2766 H   0  0  0  0  0  0  0  0  0  0  0  0
   -0.1312   -0.7935   -1.0946 H   0  0  0  0  0  0  0  0  0  0  0  0
    1.6513   -0.9925    0.5659 H   0  0  0  0  0  0  0  0  0  0  0  0
    2.3297    0.9894    1.8307 H   0  0  0  0  0  0  0  0  0  0  0  0
   -3.0378    5.1816   -2.0652 H   0  0  0  0  0  0  0  0  0  0  0  0
  1  2  2  0  0  0  0
  1 14  1  0  0  0  0
  1 15  1  0  0  0  0
  2  3  1  0  0  0  0
  2 16  1  0  0  0  0
  3  4  2  0  0  0  0
  4  5  1  0  0  0  0
  4 13  1  0  0  0  0
  5  6  1  0  0  0  0
  5 14  2  0  0  0  0
  6  7  2  0  0  0  0
  6 17  1  0  0  0  0
  7  8  1  0  0  0  0
  7 18  1  0  0  0  0
  8  9  2  0  0  0  0
  8 13  1  0  0  0  0
  9 10  1  0  0  0  0
  9 19  1  0  0  0  0
 10 11  2  0  0  0  0
 10 20  1  0  0  0  0
 11 12  1  0  0  0  0
 11 21  1  0  0  0  0
 12 13  2  0  0  0  0
 14 22  1  0  0  0  0
M  END
$$$$
Row5
 OpenBabel08252322323D

 59 64  0  0  0  0  0  0  0  0999 V2000
    6.0162    4.4684    3.6575 C   0  0  0  0  0  0  0  0  0  0  0  0
    4.7750    3.5656    3.9792 C   0  0  1  0  0  0  0  0  0  0  0  0
    5.0244    2.9520    5.4084 C   0  0  0  0  0  0  0  0  0  0  0  0
    3.9828    1.9057    5.8861 C   0  0  0  0  0  0  0  0  0  0  0  0
    3.4858    0.9395    4.7712 C   0  0  0  0  0  0  0  0  0  0  0  0
    3.3209    1.5126    3.3003 C   0  0  2  0  0  0  0  0  0  0  0  0
    2.1054    2.5172    3.2232 C   0  0  1  0  0  0  0  0  0  0  0  0
    0.8274    2.0156    3.6306 O   0  0  0  0  0  0  0  0  0  0  0  0
   -0.0002    3.1765    3.8184 C   0  0  0  0  0  0  0  0  0  0  0  0
    0.9504    4.3758    4.0125 C   0  0  0  0  0  0  0  0  0  0  0  0
    2.2435    3.6822    4.1187 N   0  3  2  0  0  0  0  0  0  0  0  0
    3.4898    4.4733    3.9484 C   0  0  0  0  0  0  0  0  0  0  0  0
    3.2149    0.2796    2.2811 C   0  0  1  0  0  0  0  0  0  0  0  0
    2.0053   -0.7012    2.5186 C   0  0  0  0  0  0  0  0  0  0  0  0
    1.9329   -1.8587    1.4734 C   0  0  0  0  0  0  0  0  0  0  0  0
    2.2469   -1.3795    0.0201 C   0  0  2  0  0  0  0  0  0  0  0  0
    3.6494   -0.7453   -0.0231 C   0  0  0  0  0  0  0  0  0  0  0  0
    3.3967    0.6018    0.7292 C   0  0  2  0  0  0  0  0  0  0  0  0
    4.6445    1.5252    0.5171 C   0  0  0  0  0  0  0  0  0  0  0  0
    4.7017    2.7568    1.4484 C   0  0  0  0  0  0  0  0  0  0  0  0
    4.6209    2.3572    2.9637 C   0  0  1  0  0  0  0  0  0  0  0  0
    2.0670    1.0173   -0.0130 C   0  0  1  0  0  0  0  0  0  0  0  0
    2.2841    1.7820   -1.1988 O   0  0  0  0  0  0  0  0  0  0  0  0
    1.4332   -0.2423   -0.3658 C   0  0  0  0  0  0  0  0  0  0  0  0
    0.2295   -0.3440   -0.9495 C   0  0  0  0  0  0  0  0  0  0  0  0
    6.0724    5.2646    4.3701 H   0  0  0  0  0  0  0  0  0  0  0  0
    5.9148    4.8768    2.6737 H   0  0  0  0  0  0  0  0  0  0  0  0
    6.9083    3.8799    3.7092 H   0  0  0  0  0  0  0  0  0  0  0  0
    5.0294    3.7560    6.1144 H   0  0  0  0  0  0  0  0  0  0  0  0
    5.9538    2.4262    5.3404 H   0  0  0  0  0  0  0  0  0  0  0  0
    3.1359    2.4304    6.2765 H   0  0  0  0  0  0  0  0  0  0  0  0
    4.4721    1.3000    6.6200 H   0  0  0  0  0  0  0  0  0  0  0  0
    2.5296    0.5685    5.0761 H   0  0  0  0  0  0  0  0  0  0  0  0
    4.2644    0.2106    4.6858 H   0  0  0  0  0  0  0  0  0  0  0  0
    2.1376    2.7368    2.1765 H   0  0  0  0  0  0  0  0  0  0  0  0
   -0.6178    3.0524    4.6833 H   0  0  0  0  0  0  0  0  0  0  0  0
   -0.6436    3.3291    2.9772 H   0  0  0  0  0  0  0  0  0  0  0  0
    0.7207    4.9210    4.9041 H   0  0  0  0  0  0  0  0  0  0  0  0
    0.9026    5.1114    3.2369 H   0  0  0  0  0  0  0  0  0  0  0  0
    2.4074    3.4195    5.0906 H   0  0  0  0  0  0  0  0  0  0  0  0
    3.4495    4.9828    3.0083 H   0  0  0  0  0  0  0  0  0  0  0  0
    3.5551    5.1652    4.7620 H   0  0  0  0  0  0  0  0  0  0  0  0
    4.1029   -0.2468    2.5625 H   0  0  0  0  0  0  0  0  0  0  0  0
    1.0967   -0.1386    2.4655 H   0  0  0  0  0  0  0  0  0  0  0  0
    2.1463   -1.1507    3.4793 H   0  0  0  0  0  0  0  0  0  0  0  0
    0.9473   -2.2747    1.4912 H   0  0  0  0  0  0  0  0  0  0  0  0
    2.6732   -2.5831    1.7418 H   0  0  0  0  0  0  0  0  0  0  0  0
    2.1025   -2.2417   -0.5969 H   0  0  0  0  0  0  0  0  0  0  0  0
    3.9732   -0.5779   -1.0291 H   0  0  0  0  0  0  0  0  0  0  0  0
    4.4189   -1.3513    0.4077 H   0  0  0  0  0  0  0  0  0  0  0  0
    4.6339    1.8727   -0.4948 H   0  0  0  0  0  0  0  0  0  0  0  0
    5.5034    0.9307    0.7489 H   0  0  0  0  0  0  0  0  0  0  0  0
    3.8798    3.4019    1.2177 H   0  0  0  0  0  0  0  0  0  0  0  0
    5.6387    3.2477    1.2873 H   0  0  0  0  0  0  0  0  0  0  0  0
    5.4805    1.7367    3.1087 H   0  0  0  0  0  0  0  0  0  0  0  0
    1.4779    1.6441    0.6233 H   0  0  0  0  0  0  0  0  0  0  0  0
    2.8173    1.2657   -1.8234 H   0  0  0  0  0  0  0  0  0  0  0  0
   -0.1593   -1.2738   -1.1718 H   0  0  0  0  0  0  0  0  0  0  0  0
   -0.3077    0.5075   -1.1762 H   0  0  0  0  0  0  0  0  0  0  0  0
  1 26  1  0  0  0  0
  1 27  1  0  0  0  0
  1 28  1  0  0  0  0
  2  1  1  6  0  0  0
  2  3  1  0  0  0  0
  2 12  1  0  0  0  0
  2 21  1  0  0  0  0
  3  4  1  0  0  0  0
  3 29  1  0  0  0  0
  3 30  1  0  0  0  0
  4  5  1  0  0  0  0
  4 31  1  0  0  0  0
  4 32  1  0  0  0  0
  5 33  1  0  0  0  0
  5 34  1  0  0  0  0
  6  5  1  1  0  0  0
  6  7  1  0  0  0  0
  6 13  1  0  0  0  0
  6 21  1  0  0  0  0
  7  8  1  0  0  0  0
  7 11  1  0  0  0  0
  7 35  1  6  0  0  0
  8  9  1  0  0  0  0
  9 10  1  0  0  0  0
  9 36  1  0  0  0  0
  9 37  1  0  0  0  0
 10 11  1  0  0  0  0
 10 38  1  0  0  0  0
 10 39  1  0  0  0  0
 11 12  1  0  0  0  0
 11 40  1  1  0  0  0
 12 41  1  0  0  0  0
 12 42  1  0  0  0  0
 13 14  1  0  0  0  0
 13 18  1  0  0  0  0
 13 43  1  1  0  0  0
 14 15  1  0  0  0  0
 14 44  1  0  0  0  0
 14 45  1  0  0  0  0
 15 16  1  0  0  0  0
 15 46  1  0  0  0  0
 15 47  1  0  0  0  0
 16 17  1  0  0  0  0
 16 24  1  0  0  0  0
 16 48  1  6  0  0  0
 17 49  1  0  0  0  0
 17 50  1  0  0  0  0
 18 17  1  6  0  0  0
 18 19  1  0  0  0  0
 18 22  1  0  0  0  0
 19 20  1  0  0  0  0
 19 51  1  0  0  0  0
 19 52  1  0  0  0  0
 20 21  1  0  0  0  0
 20 53  1  0  0  0  0
 20 54  1  0  0  0  0
 21 55  1  1  0  0  0
 22 23  1  0  0  0  0
 22 24  1  0  0  0  0
 22 56  1  1  0  0  0
 23 57  1  0  0  0  0
 24 25  2  0  0  0  0
 25 58  1  0  0  0  0
 25 59  1  0  0  0  0
M  CHG  1  11   1
M  END
$$$$
Row6
 OpenBabel08252322323D

 59 64  0  0  0  0  0  0  0  0999 V2000
    6.2494    4.5310    3.3490 C   0  0  0  0  0  0  0  0  0  0  0  0
    5.0585    3.5976    3.7622 C   0  0  1  0  0  0  0  0  0  0  0  0
    5.4423    2.9765    5.1570 C   0  0  0  0  0  0  0  0  0  0  0  0
    4.4474    1.9301    5.7188 C   0  0  0  0  0  0  0  0  0  0  0  0
    3.8683    0.9651    4.6425 C   0  0  0  0  0  0  0  0  0  0  0  0
    3.5648    1.5431    3.1927 C   0  0  2  0  0  0  0  0  0  0  0  0
    2.3077    2.4974    3.2592 C   0  0  0  0  0  0  0  0  0  0  0  0
    2.5413    3.6806    4.1185 N   0  3  2  0  0  0  0  0  0  0  0  0
    1.4896    4.6953    4.2537 C   0  0  0  0  0  0  0  0  0  0  0  0
    2.2984    5.8413    4.8959 C   0  0  0  0  0  0  0  0  0  0  0  0
    3.6930    5.4923    4.7942 O   0  0  0  0  0  0  0  0  0  0  0  0
    3.7483    4.4637    3.7980 C   0  0  1  0  0  0  0  0  0  0  0  0
    3.3627    0.3141    2.1869 C   0  0  1  0  0  0  0  0  0  0  0  0
    2.1583   -0.6407    2.5349 C   0  0  0  0  0  0  0  0  0  0  0  0
    1.9733   -1.8015    1.5085 C   0  0  0  0  0  0  0  0  0  0  0  0
    2.1776   -1.3269    0.0370 C   0  0  2  0  0  0  0  0  0  0  0  0
    3.5953   -0.7399   -0.1255 C   0  0  0  0  0  0  0  0  0  0  0  0
    3.4401    0.6243    0.6199 C   0  0  2  0  0  0  0  0  0  0  0  0
    4.6800    1.5297    0.3193 C   0  0  0  0  0  0  0  0  0  0  0  0
    4.7748    2.7774    1.2309 C   0  0  0  0  0  0  0  0  0  0  0  0
    4.8273    2.3943    2.7512 C   0  0  1  0  0  0  0  0  0  0  0  0
    2.0901    1.0707   -0.0616 C   0  0  1  0  0  0  0  0  0  0  0  0
    2.2651    1.6871   -1.3401 O   0  0  0  0  0  0  0  0  0  0  0  0
    1.3584   -0.1674   -0.2556 C   0  0  0  0  0  0  0  0  0  0  0  0
    0.0679   -0.2302   -0.6157 C   0  0  0  0  0  0  0  0  0  0  0  0
    6.3520    5.3175    4.0672 H   0  0  0  0  0  0  0  0  0  0  0  0
    6.0547    4.9518    2.3847 H   0  0  0  0  0  0  0  0  0  0  0  0
    7.1539    3.9605    3.3132 H   0  0  0  0  0  0  0  0  0  0  0  0
    5.5145    3.7756    5.8648 H   0  0  0  0  0  0  0  0  0  0  0  0
    6.3623    2.4527    5.0017 H   0  0  0  0  0  0  0  0  0  0  0  0
    3.6328    2.4519    6.1761 H   0  0  0  0  0  0  0  0  0  0  0  0
    4.9926    1.3268    6.4143 H   0  0  0  0  0  0  0  0  0  0  0  0
    2.9482    0.5776    5.0274 H   0  0  0  0  0  0  0  0  0  0  0  0
    4.6489    0.2510    4.4826 H   0  0  0  0  0  0  0  0  0  0  0  0
    1.4785    1.9464    3.6513 H   0  0  0  0  0  0  0  0  0  0  0  0
    2.1119    2.8483    2.2675 H   0  0  0  0  0  0  0  0  0  0  0  0
    2.6099    3.1567    4.9910 H   0  0  0  0  0  0  0  0  0  0  0  0
    0.6977    4.3629    4.8919 H   0  0  0  0  0  0  0  0  0  0  0  0
    0.9933    4.9522    3.3412 H   0  0  0  0  0  0  0  0  0  0  0  0
    2.0229    5.9523    5.9239 H   0  0  0  0  0  0  0  0  0  0  0  0
    2.1029    6.7678    4.3977 H   0  0  0  0  0  0  0  0  0  0  0  0
    3.7744    4.8694    2.8083 H   0  0  0  0  0  0  0  0  0  0  0  0
    4.2628   -0.2290    2.3864 H   0  0  0  0  0  0  0  0  0  0  0  0
    1.2599   -0.0599    2.5562 H   0  0  0  0  0  0  0  0  0  0  0  0
    2.3724   -1.0877    3.4832 H   0  0  0  0  0  0  0  0  0  0  0  0
    0.9836   -2.1955    1.6090 H   0  0  0  0  0  0  0  0  0  0  0  0
    2.7127   -2.5459    1.7186 H   0  0  0  0  0  0  0  0  0  0  0  0
    1.9621   -2.1749   -0.5790 H   0  0  0  0  0  0  0  0  0  0  0  0
    3.8463   -0.5983   -1.1560 H   0  0  0  0  0  0  0  0  0  0  0  0
    4.3773   -1.3637    0.2543 H   0  0  0  0  0  0  0  0  0  0  0  0
    4.6202    1.8578   -0.6974 H   0  0  0  0  0  0  0  0  0  0  0  0
    5.5519    0.9384    0.5067 H   0  0  0  0  0  0  0  0  0  0  0  0
    3.9182    3.3954    1.0601 H   0  0  0  0  0  0  0  0  0  0  0  0
    5.6803    3.2939    0.9896 H   0  0  0  0  0  0  0  0  0  0  0  0
    5.7105    1.7944    2.8212 H   0  0  0  0  0  0  0  0  0  0  0  0
    1.6010    1.7979    0.5524 H   0  0  0  0  0  0  0  0  0  0  0  0
    2.7074    1.0667   -1.9404 H   0  0  0  0  0  0  0  0  0  0  0  0
   -0.3902   -1.1471   -0.7360 H   0  0  0  0  0  0  0  0  0  0  0  0
   -0.4669    0.6384   -0.7725 H   0  0  0  0  0  0  0  0  0  0  0  0
  1 26  1  0  0  0  0
  1 27  1  0  0  0  0
  1 28  1  0  0  0  0
  2  1  1  6  0  0  0
  2  3  1  0  0  0  0
  2 12  1  0  0  0  0
  2 21  1  0  0  0  0
  3  4  1  0  0  0  0
  3 29  1  0  0  0  0
  3 30  1  0  0  0  0
  4  5  1  0  0  0  0
  4 31  1  0  0  0  0
  4 32  1  0  0  0  0
  5 33  1  0  0  0  0
  5 34  1  0  0  0  0
  6  5  1  1  0  0  0
  6  7  1  0  0  0  0
  6 13  1  0  0  0  0
  6 21  1  0  0  0  0
  7  8  1  0  0  0  0
  7 35  1  0  0  0  0
  7 36  1  0  0  0  0
  8  9  1  0  0  0  0
  8 12  1  0  0  0  0
  8 37  1  1  0  0  0
  9 10  1  0  0  0  0
  9 38  1  0  0  0  0
  9 39  1  0  0  0  0
 10 11  1  0  0  0  0
 10 40  1  0  0  0  0
 10 41  1  0  0  0  0
 11 12  1  0  0  0  0
 12 42  1  6  0  0  0
 13 14  1  0  0  0  0
 13 18  1  0  0  0  0
 13 43  1  1  0  0  0
 14 15  1  0  0  0  0
 14 44  1  0  0  0  0
 14 45  1  0  0  0  0
 15 16  1  0  0  0  0
 15 46  1  0  0  0  0
 15 47  1  0  0  0  0
 16 17  1  0  0  0  0
 16 24  1  0  0  0  0
 16 48  1  6  0  0  0
 17 49  1  0  0  0  0
 17 50  1  0  0  0  0
 18 17  1  6  0  0  0
 18 19  1  0  0  0  0
 18 22  1  0  0  0  0
 19 20  1  0  0  0  0
 19 51  1  0  0  0  0
 19 52  1  0  0  0  0
 20 21  1  0  0  0  0
 20 53  1  0  0  0  0
 20 54  1  0  0  0  0
 21 55  1  1  0  0  0
 22 23  1  0  0  0  0
 22 24  1  0  0  0  0
 22 56  1  1  0  0  0
 23 57  1  0  0  0  0
 24 25  2  0  0  0  0
 25 58  1  0  0  0  0
 25 59  1  0  0  0  0
M  CHG  1   8   1
M  END
$$$$
Row7
 OpenBabel08252322323D

116122  0  0  1  0  0  0  0  0999 V2000
   -1.1450  -10.1254   -1.5937 C   0  0  0  0  0  0  0  0  0  0  0  0
   -1.7525   -8.7327   -2.0312 C   0  0  2  0  0  0  0  0  0  0  0  0
   -1.5465   -8.6043   -3.5977 C   0  0  0  0  0  0  0  0  0  0  0  0
   -0.2058   -7.9856   -4.1107 C   0  0  0  0  0  0  0  0  0  0  0  0
    0.9535   -7.9831   -3.0850 C   0  0  0  0  0  0  0  0  0  0  0  0
    0.5707   -7.3646   -1.6786 C   0  0  2  0  0  0  0  0  0  0  0  0
    1.4318   -8.1099   -0.5849 C   0  0  0  0  0  0  0  0  0  0  0  0
   -1.0009   -7.4744   -1.4067 C   0  0  2  0  0  0  0  0  0  0  0  0
   -1.4254   -7.2134    0.0682 C   0  0  0  0  0  0  0  0  0  0  0  0
   -2.9333   -6.8780    0.2183 C   0  0  0  0  0  0  0  0  0  0  0  0
   -3.8870   -7.4624   -0.8914 C   0  0  2  0  0  0  0  0  0  0  0  0
   -4.3977   -6.4224   -1.9455 C   0  0  0  0  0  0  0  0  0  0  0  0
   -5.7535   -6.8523   -2.2683 C   0  0  0  0  0  0  0  0  0  0  0  0
   -6.4971   -6.2456   -3.2079 C   0  0  0  0  0  0  0  0  0  0  0  0
   -6.1913   -7.9944   -1.4619 C   0  0  2  0  0  0  0  0  0  0  0  0
   -5.2620   -7.7921   -0.2391 C   0  0  0  0  0  0  0  0  0  0  0  0
   -5.7927   -9.3408   -2.1657 C   0  0  0  0  0  0  0  0  0  0  0  0
   -4.3029   -9.3979   -2.6170 C   0  0  0  0  0  0  0  0  0  0  0  0
   -3.2991   -8.7793   -1.5676 C   0  0  1  0  0  0  0  0  0  0  0  0
   -7.6196   -7.9070   -1.1589 O   0  0  0  0  0  0  0  0  0  0  0  0
   -8.1336   -8.6262   -0.0112 C   0  0  2  0  0  0  0  0  0  0  0  0
   -7.9719  -10.0516   -0.1832 O   0  0  0  0  0  0  0  0  0  0  0  0
   -8.1364  -10.8416    1.0155 C   0  0  2  0  0  0  0  0  0  0  0  0
   -7.7728  -12.3031    0.6486 C   0  0  0  0  0  0  0  0  0  0  0  0
   -6.4160  -12.3540    0.1576 O   0  0  0  0  0  0  0  0  0  0  0  0
   -5.9129  -13.6745   -0.1342 C   0  0  1  0  0  0  0  0  0  0  0  0
   -6.6298  -14.2579   -1.2478 O   0  0  0  0  0  0  0  0  0  0  0  0
   -6.2010  -15.5939   -1.6106 C   0  0  1  0  0  0  0  0  0  0  0  0
   -7.0983  -16.0938   -2.7668 C   0  0  0  0  0  0  0  0  0  0  0  0
   -8.4643  -16.1238   -2.3688 O   0  0  0  0  0  0  0  0  0  0  0  0
   -4.6974  -15.5875   -2.0182 C   0  0  2  0  0  0  0  0  0  0  0  0
   -4.2345  -16.9109   -2.2873 O   0  0  0  0  0  0  0  0  0  0  0  0
   -3.8340  -14.9441   -0.9005 C   0  0  1  0  0  0  0  0  0  0  0  0
   -2.4856  -14.8096   -1.3497 O   0  0  0  0  0  0  0  0  0  0  0  0
   -4.4052  -13.5595   -0.4882 C   0  0  2  0  0  0  0  0  0  0  0  0
   -3.6773  -13.0456    0.6238 O   0  0  0  0  0  0  0  0  0  0  0  0
   -9.6502  -10.7276    1.4909 C   0  0  1  0  0  0  0  0  0  0  0  0
   -9.8051  -11.2882    2.8111 O   0  0  0  0  0  0  0  0  0  0  0  0
  -10.0997   -9.1478    1.4901 C   0  0  2  0  0  0  0  0  0  0  0  0
  -11.5315   -8.9465    1.6041 O   0  0  0  0  0  0  0  0  0  0  0  0
   -9.6409   -8.3408    0.2045 C   0  0  1  0  0  0  0  0  0  0  0  0
   -9.8844   -6.9435    0.3553 O   0  0  0  0  0  0  0  0  0  0  0  0
    0.9809   -5.9050   -1.6788 C   0  0  0  0  0  0  0  0  0  0  0  0
    0.6405   -5.1227   -2.5957 O   0  0  0  0  0  0  0  0  0  0  0  0
    1.7477   -5.4221   -0.6630 O   0  0  0  0  0  0  0  0  0  0  0  0
    2.3787   -4.1652   -0.4023 C   0  0  1  0  0  0  0  0  0  0  0  0
    1.4281   -3.0908   -0.2128 O   0  0  0  0  0  0  0  0  0  0  0  0
    2.0239   -1.8384    0.2251 C   0  0  1  0  0  0  0  0  0  0  0  0
    0.9259   -0.7490    0.2922 C   0  0  0  0  0  0  0  0  0  0  0  0
    0.3868   -0.5142   -1.0048 O   0  0  0  0  0  0  0  0  0  0  0  0
    2.7390   -2.0336    1.5968 C   0  0  2  0  0  0  0  0  0  0  0  0
    3.3677   -0.8321    2.0412 O   0  0  0  0  0  0  0  0  0  0  0  0
    3.8030   -3.1561    1.4832 C   0  0  1  0  0  0  0  0  0  0  0  0
    4.3649   -3.4298    2.7669 O   0  0  0  0  0  0  0  0  0  0  0  0
    3.1716   -4.4443    0.9032 C   0  0  2  0  0  0  0  0  0  0  0  0
    4.1826   -5.4236    0.6694 O   0  0  0  0  0  0  0  0  0  0  0  0
   -0.1125  -10.1671   -1.8712 H   0  0  0  0  0  0  0  0  0  0  0  0
   -1.6774  -10.9155   -2.0806 H   0  0  0  0  0  0  0  0  0  0  0  0
   -1.2340  -10.2360   -0.5332 H   0  0  0  0  0  0  0  0  0  0  0  0
   -2.3426   -7.9971   -3.9751 H   0  0  0  0  0  0  0  0  0  0  0  0
   -1.5278   -9.6146   -3.9496 H   0  0  0  0  0  0  0  0  0  0  0  0
   -0.3968   -6.9724   -4.3969 H   0  0  0  0  0  0  0  0  0  0  0  0
    0.1162   -8.6051   -4.9215 H   0  0  0  0  0  0  0  0  0  0  0  0
    1.7624   -7.4140   -3.4934 H   0  0  0  0  0  0  0  0  0  0  0  0
    1.2143   -9.0062   -2.9115 H   0  0  0  0  0  0  0  0  0  0  0  0
    1.1621   -9.1451   -0.5631 H   0  0  0  0  0  0  0  0  0  0  0  0
    1.2463   -7.6727    0.3739 H   0  0  0  0  0  0  0  0  0  0  0  0
    2.4705   -8.0169   -0.8244 H   0  0  0  0  0  0  0  0  0  0  0  0
   -1.3578   -6.6465   -1.9831 H   0  0  0  0  0  0  0  0  0  0  0  0
   -0.8545   -6.3912    0.4463 H   0  0  0  0  0  0  0  0  0  0  0  0
   -1.2431   -8.1140    0.6165 H   0  0  0  0  0  0  0  0  0  0  0  0
   -3.0339   -5.8128    0.2080 H   0  0  0  0  0  0  0  0  0  0  0  0
   -3.2407   -7.3392    1.1336 H   0  0  0  0  0  0  0  0  0  0  0  0
   -3.7799   -6.4370   -2.8190 H   0  0  0  0  0  0  0  0  0  0  0  0
   -4.3708   -5.4209   -1.5698 H   0  0  0  0  0  0  0  0  0  0  0  0
   -6.1124   -5.4446   -3.7328 H   0  0  0  0  0  0  0  0  0  0  0  0
   -7.4532   -6.5804   -3.4050 H   0  0  0  0  0  0  0  0  0  0  0  0
   -5.6016   -6.9818    0.3716 H   0  0  0  0  0  0  0  0  0  0  0  0
   -5.2272   -8.6434    0.4082 H   0  0  0  0  0  0  0  0  0  0  0  0
   -6.4118   -9.4660   -3.0294 H   0  0  0  0  0  0  0  0  0  0  0  0
   -5.9303  -10.1208   -1.4463 H   0  0  0  0  0  0  0  0  0  0  0  0
   -4.2070   -8.8576   -3.5356 H   0  0  0  0  0  0  0  0  0  0  0  0
   -4.0473  -10.4315   -2.7233 H   0  0  0  0  0  0  0  0  0  0  0  0
   -3.2268   -9.4843   -0.7659 H   0  0  0  0  0  0  0  0  0  0  0  0
   -7.5766   -8.2897    0.8382 H   0  0  0  0  0  0  0  0  0  0  0  0
   -7.5089  -10.5041    1.8138 H   0  0  0  0  0  0  0  0  0  0  0  0
   -8.4398  -12.6567   -0.1097 H   0  0  0  0  0  0  0  0  0  0  0  0
   -7.8604  -12.9209    1.5179 H   0  0  0  0  0  0  0  0  0  0  0  0
   -6.0491  -14.3042    0.7201 H   0  0  0  0  0  0  0  0  0  0  0  0
   -6.2990  -16.2566   -0.7762 H   0  0  0  0  0  0  0  0  0  0  0  0
   -6.7927  -17.0802   -3.0469 H   0  0  0  0  0  0  0  0  0  0  0  0
   -6.9966  -15.4236   -3.5947 H   0  0  0  0  0  0  0  0  0  0  0  0
   -8.5691  -16.7289   -1.6180 H   0  0  0  0  0  0  0  0  0  0  0  0
   -4.6022  -15.0060   -2.9113 H   0  0  0  0  0  0  0  0  0  0  0  0
   -4.3148  -17.4508   -1.4855 H   0  0  0  0  0  0  0  0  0  0  0  0
   -3.8569  -15.5816   -0.0414 H   0  0  0  0  0  0  0  0  0  0  0  0
   -2.4604  -14.2322   -2.1287 H   0  0  0  0  0  0  0  0  0  0  0  0
   -4.3025  -12.8872   -1.3142 H   0  0  0  0  0  0  0  0  0  0  0  0
   -3.7665  -13.6511    1.3764 H   0  0  0  0  0  0  0  0  0  0  0  0
  -10.2745  -11.2764    0.8171 H   0  0  0  0  0  0  0  0  0  0  0  0
   -9.2452  -10.8021    3.4365 H   0  0  0  0  0  0  0  0  0  0  0  0
   -9.5966   -8.7753    2.3579 H   0  0  0  0  0  0  0  0  0  0  0  0
  -11.9705   -9.2896    0.8101 H   0  0  0  0  0  0  0  0  0  0  0  0
  -10.2042   -8.6554   -0.6491 H   0  0  0  0  0  0  0  0  0  0  0  0
   -9.3917   -6.6103    1.1215 H   0  0  0  0  0  0  0  0  0  0  0  0
    2.9868   -3.8381   -1.2196 H   0  0  0  0  0  0  0  0  0  0  0  0
    2.7674   -1.5201   -0.4754 H   0  0  0  0  0  0  0  0  0  0  0  0
    1.3506    0.1583    0.6681 H   0  0  0  0  0  0  0  0  0  0  0  0
    0.1428   -1.0818    0.9410 H   0  0  0  0  0  0  0  0  0  0  0  0
    1.0921   -0.2121   -1.5983 H   0  0  0  0  0  0  0  0  0  0  0  0
    1.9926   -2.3055    2.3137 H   0  0  0  0  0  0  0  0  0  0  0  0
    4.0491   -0.5687    1.4031 H   0  0  0  0  0  0  0  0  0  0  0  0
    4.5770   -2.8243    0.8231 H   0  0  0  0  0  0  0  0  0  0  0  0
    3.6659   -3.7310    3.3683 H   0  0  0  0  0  0  0  0  0  0  0  0
    2.4765   -4.8181    1.6257 H   0  0  0  0  0  0  0  0  0  0  0  0
    4.8139   -5.0866    0.0146 H   0  0  0  0  0  0  0  0  0  0  0  0
  1 57  1  0  0  0  0
  1 58  1  0  0  0  0
  1 59  1  0  0  0  0
  2  1  1  1  0  0  0
  2  3  1  0  0  0  0
  2  8  1  0  0  0  0
  2 19  1  0  0  0  0
  3  4  1  0  0  0  0
  3 60  1  0  0  0  0
  3 61  1  0  0  0  0
  4  5  1  0  0  0  0
  4 62  1  0  0  0  0
  4 63  1  0  0  0  0
  5  6  1  0  0  0  0
  5 64  1  0  0  0  0
  5 65  1  0  0  0  0
  6  7  1  0  0  0  0
  6  8  1  0  0  0  0
  6 43  1  1  0  0  0
  7 66  1  0  0  0  0
  7 67  1  0  0  0  0
  7 68  1  0  0  0  0
  8  9  1  0  0  0  0
  8 69  1  6  0  0  0
  9 10  1  0  0  0  0
  9 70  1  0  0  0  0
  9 71  1  0  0  0  0
 10 72  1  0  0  0  0
 10 73  1  0  0  0  0
 11 10  1  1  0  0  0
 11 12  1  0  0  0  0
 11 16  1  0  0  0  0
 11 19  1  0  0  0  0
 12 13  1  0  0  0  0
 12 74  1  0  0  0  0
 12 75  1  0  0  0  0
 13 14  2  0  0  0  0
 13 15  1  0  0  0  0
 14 76  1  0  0  0  0
 14 77  1  0  0  0  0
 15 16  1  0  0  0  0
 15 17  1  0  0  0  0
 15 20  1  1  0  0  0
 16 78  1  0  0  0  0
 16 79  1  0  0  0  0
 17 18  1  0  0  0  0
 17 80  1  0  0  0  0
 17 81  1  0  0  0  0
 18 19  1  0  0  0  0
 18 82  1  0  0  0  0
 18 83  1  0  0  0  0
 19 84  1  1  0  0  0
 20 21  1  0  0  0  0
 21 22  1  0  0  0  0
 21 41  1  0  0  0  0
 21 85  1  1  0  0  0
 22 23  1  0  0  0  0
 23 24  1  0  0  0  0
 23 37  1  0  0  0  0
 23 86  1  1  0  0  0
 24 25  1  0  0  0  0
 24 87  1  0  0  0  0
 24 88  1  0  0  0  0
 25 26  1  0  0  0  0
 26 27  1  0  0  0  0
 26 35  1  0  0  0  0
 26 89  1  1  0  0  0
 27 28  1  0  0  0  0
 28 29  1  0  0  0  0
 28 31  1  0  0  0  0
 28 90  1  1  0  0  0
 29 30  1  0  0  0  0
 29 91  1  0  0  0  0
 29 92  1  0  0  0  0
 30 93  1  0  0  0  0
 31 32  1  0  0  0  0
 31 33  1  0  0  0  0
 31 94  1  6  0  0  0
 32 95  1  0  0  0  0
 33 34  1  0  0  0  0
 33 35  1  0  0  0  0
 33 96  1  1  0  0  0
 34 97  1  0  0  0  0
 35 36  1  0  0  0  0
 35 98  1  6  0  0  0
 36 99  1  0  0  0  0
 37 38  1  0  0  0  0
 37 39  1  0  0  0  0
 37100  1  6  0  0  0
 38101  1  0  0  0  0
 39 40  1  0  0  0  0
 39 41  1  0  0  0  0
 39102  1  1  0  0  0
 40103  1  0  0  0  0
 41 42  1  0  0  0  0
 41104  1  6  0  0  0
 42105  1  0  0  0  0
 43 44  2  0  0  0  0
 43 45  1  0  0  0  0
 45 46  1  0  0  0  0
 46 47  1  0  0  0  0
 46 55  1  0  0  0  0
 46106  1  6  0  0  0
 47 48  1  0  0  0  0
 48 49  1  0  0  0  0
 48 51  1  0  0  0  0
 48107  1  6  0  0  0
 49 50  1  0  0  0  0
 49108  1  0  0  0  0
 49109  1  0  0  0  0
 50110  1  0  0  0  0
 51 52  1  0  0  0  0
 51 53  1  0  0  0  0
 51111  1  1  0  0  0
 52112  1  0  0  0  0
 53 54  1  0  0  0  0
 53 55  1  0  0  0  0
 53113  1  6  0  0  0
 54114  1  0  0  0  0
 55 56  1  0  0  0  0
 55115  1  1  0  0  0
 56116  1  0  0  0  0
M  END
$$$$
Row8
 OpenBabel08252322323D

137144  0  0  1  0  0  0  0  0999 V2000
    3.4910   -6.2917   -1.6150 C   0  0  0  0  0  0  0  0  0  0  0  0
    2.8983   -7.5119   -2.4158 C   0  0  1  0  0  0  0  0  0  0  0  0
    3.1241   -8.7849   -1.5050 C   0  0  0  0  0  0  0  0  0  0  0  0
    2.2754   -8.8386   -0.1990 C   0  0  0  0  0  0  0  0  0  0  0  0
    0.7665   -8.6161   -0.4595 C   0  0  0  0  0  0  0  0  0  0  0  0
    0.3851   -7.3746   -1.3505 C   0  0  2  0  0  0  0  0  0  0  0  0
   -1.1302   -7.6046   -1.7283 C   0  0  0  0  0  0  0  0  0  0  0  0
    1.3184   -7.3956   -2.6527 C   0  0  1  0  0  0  0  0  0  0  0  0
    0.8845   -6.3467   -3.7390 C   0  0  0  0  0  0  0  0  0  0  0  0
    1.9142   -6.0395   -4.8448 C   0  0  0  0  0  0  0  0  0  0  0  0
    2.9006   -7.2082   -5.1215 C   0  0  1  0  0  0  0  0  0  0  0  0
    2.2894   -8.4365   -5.8725 C   0  0  0  0  0  0  0  0  0  0  0  0
    3.3700   -8.9024   -6.7380 C   0  0  0  0  0  0  0  0  0  0  0  0
    3.2532   -9.9768   -7.5308 C   0  0  0  0  0  0  0  0  0  0  0  0
    4.5816   -8.0906   -6.6199 C   0  0  1  0  0  0  0  0  0  0  0  0
    3.9056   -6.7578   -6.2105 C   0  0  0  0  0  0  0  0  0  0  0  0
    5.4466   -8.6541   -5.4289 C   0  0  0  0  0  0  0  0  0  0  0  0
    4.6714   -8.7928   -4.0744 C   0  0  0  0  0  0  0  0  0  0  0  0
    3.7165   -7.5733   -3.8083 C   0  0  2  0  0  0  0  0  0  0  0  0
    5.3398   -7.9998   -7.8744 O   0  0  0  0  0  0  0  0  0  0  0  0
    6.3059   -6.9206   -8.0178 C   0  0  2  0  0  0  0  0  0  0  0  0
    5.5592   -5.6942   -8.1730 O   0  0  0  0  0  0  0  0  0  0  0  0
    6.3349   -4.4869   -8.1064 C   0  0  2  0  0  0  0  0  0  0  0  0
    5.3583   -3.2859   -8.0242 C   0  0  0  0  0  0  0  0  0  0  0  0
    4.5769   -3.3606   -6.8356 O   0  0  0  0  0  0  0  0  0  0  0  0
    7.2782   -4.4389   -9.3404 C   0  0  1  0  0  0  0  0  0  0  0  0
    8.0841   -3.2561   -9.1457 O   0  0  0  0  0  0  0  0  0  0  0  0
    8.8475   -2.7156  -10.2396 C   0  0  1  0  0  0  0  0  0  0  0  0
    8.0672   -2.6190  -11.4544 O   0  0  0  0  0  0  0  0  0  0  0  0
    8.7601   -2.0195  -12.5753 C   0  0  1  0  0  0  0  0  0  0  0  0
    7.8213   -2.1031  -13.8026 C   0  0  0  0  0  0  0  0  0  0  0  0
    7.5291   -3.4640  -14.0979 O   0  0  0  0  0  0  0  0  0  0  0  0
    9.1678   -0.5552  -12.2270 C   0  0  2  0  0  0  0  0  0  0  0  0
    9.9098    0.0439  -13.2900 O   0  0  0  0  0  0  0  0  0  0  0  0
   10.0213   -0.5409  -10.9300 C   0  0  1  0  0  0  0  0  0  0  0  0
   10.2897    0.8031  -10.5336 O   0  0  0  0  0  0  0  0  0  0  0  0
    9.3047   -1.3020   -9.7833 C   0  0  2  0  0  0  0  0  0  0  0  0
   10.1572   -1.4010   -8.6429 O   0  0  0  0  0  0  0  0  0  0  0  0
    8.1044   -5.7614   -9.4136 C   0  0  2  0  0  0  0  0  0  0  0  0
    8.8282   -5.8191  -10.6413 O   0  0  0  0  0  0  0  0  0  0  0  0
    7.2278   -7.0507   -9.2695 C   0  0  1  0  0  0  0  0  0  0  0  0
    8.1720   -8.1420   -9.1885 O   0  0  0  0  0  0  0  0  0  0  0  0
    7.7124   -9.4949   -9.3888 C   0  0  1  0  0  0  0  0  0  0  0  0
    6.9379   -9.6113  -10.6054 O   0  0  0  0  0  0  0  0  0  0  0  0
    6.4736  -10.9484  -10.9133 C   0  0  1  0  0  0  0  0  0  0  0  0
    5.5929  -10.8662  -12.1862 C   0  0  0  0  0  0  0  0  0  0  0  0
    4.5049   -9.9704  -11.9850 O   0  0  0  0  0  0  0  0  0  0  0  0
    7.6837  -11.9186  -11.0873 C   0  0  2  0  0  0  0  0  0  0  0  0
    7.2493  -13.2671  -11.2749 O   0  0  0  0  0  0  0  0  0  0  0  0
    8.6084  -11.8561   -9.8416 C   0  0  1  0  0  0  0  0  0  0  0  0
    9.7930  -12.6194  -10.0733 O   0  0  0  0  0  0  0  0  0  0  0  0
    8.9798  -10.3909   -9.4839 C   0  0  2  0  0  0  0  0  0  0  0  0
    9.7189  -10.3475   -8.2623 O   0  0  0  0  0  0  0  0  0  0  0  0
    0.4543   -6.0544   -0.6099 C   0  0  0  0  0  0  0  0  0  0  0  0
   -0.1235   -5.0456   -1.0853 O   0  0  0  0  0  0  0  0  0  0  0  0
    1.1067   -5.8579    0.5863 O   0  0  0  0  0  0  0  0  0  0  0  0
    1.7221   -4.5994    0.9601 C   0  0  1  0  0  0  0  0  0  0  0  0
    0.8176   -3.4711    0.9696 O   0  0  0  0  0  0  0  0  0  0  0  0
    1.5099   -2.1945    1.0211 C   0  0  1  0  0  0  0  0  0  0  0  0
    0.4570   -1.0675    0.8904 C   0  0  0  0  0  0  0  0  0  0  0  0
   -0.2173   -1.1880   -0.3601 O   0  0  0  0  0  0  0  0  0  0  0  0
    2.3981   -2.0809    2.3039 C   0  0  2  0  0  0  0  0  0  0  0  0
    3.2350   -0.9236    2.2228 O   0  0  0  0  0  0  0  0  0  0  0  0
    3.2820   -3.3496    2.5122 C   0  0  1  0  0  0  0  0  0  0  0  0
    3.9107   -3.3275    3.7946 O   0  0  0  0  0  0  0  0  0  0  0  0
    2.4588   -4.6585    2.3223 C   0  0  2  0  0  0  0  0  0  0  0  0
    3.3171   -5.7963    2.3843 O   0  0  0  0  0  0  0  0  0  0  0  0
    2.9843   -6.2008   -0.6770 H   0  0  0  0  0  0  0  0  0  0  0  0
    3.3564   -5.3940   -2.1816 H   0  0  0  0  0  0  0  0  0  0  0  0
    4.5349   -6.4515   -1.4425 H   0  0  0  0  0  0  0  0  0  0  0  0
    4.1571   -8.8119   -1.2275 H   0  0  0  0  0  0  0  0  0  0  0  0
    2.8113   -9.6233   -2.0916 H   0  0  0  0  0  0  0  0  0  0  0  0
    2.6238   -8.0775    0.4675 H   0  0  0  0  0  0  0  0  0  0  0  0
    2.3907   -9.8155    0.2221 H   0  0  0  0  0  0  0  0  0  0  0  0
    0.2867   -8.4955    0.4893 H   0  0  0  0  0  0  0  0  0  0  0  0
    0.4444   -9.4731   -1.0134 H   0  0  0  0  0  0  0  0  0  0  0  0
   -1.2297   -8.5301   -2.2559 H   0  0  0  0  0  0  0  0  0  0  0  0
   -1.4688   -6.8018   -2.3494 H   0  0  0  0  0  0  0  0  0  0  0  0
   -1.7193   -7.6378   -0.8357 H   0  0  0  0  0  0  0  0  0  0  0  0
    1.1167   -8.3565   -3.0781 H   0  0  0  0  0  0  0  0  0  0  0  0
    0.6639   -5.4287   -3.2354 H   0  0  0  0  0  0  0  0  0  0  0  0
    0.0496   -6.7875   -4.2424 H   0  0  0  0  0  0  0  0  0  0  0  0
    2.4812   -5.1815   -4.5495 H   0  0  0  0  0  0  0  0  0  0  0  0
    1.3640   -5.8741   -5.7475 H   0  0  0  0  0  0  0  0  0  0  0  0
    1.4394   -8.1423   -6.4519 H   0  0  0  0  0  0  0  0  0  0  0  0
    1.9450   -9.1963   -5.2024 H   0  0  0  0  0  0  0  0  0  0  0  0
    2.3648  -10.5011   -7.5618 H   0  0  0  0  0  0  0  0  0  0  0  0
    4.0516  -10.2797   -8.1103 H   0  0  0  0  0  0  0  0  0  0  0  0
    4.6210   -6.0678   -5.8141 H   0  0  0  0  0  0  0  0  0  0  0  0
    3.4444   -6.2459   -7.0291 H   0  0  0  0  0  0  0  0  0  0  0  0
    6.2741   -7.9936   -5.2747 H   0  0  0  0  0  0  0  0  0  0  0  0
    5.7476   -9.6415   -5.7108 H   0  0  0  0  0  0  0  0  0  0  0  0
    5.3812   -8.8551   -3.2761 H   0  0  0  0  0  0  0  0  0  0  0  0
    4.0689   -9.6753   -4.1301 H   0  0  0  0  0  0  0  0  0  0  0  0
    4.3768   -6.7593   -3.5930 H   0  0  0  0  0  0  0  0  0  0  0  0
    6.9349   -6.9466   -7.1526 H   0  0  0  0  0  0  0  0  0  0  0  0
    6.9568   -4.4485   -7.2365 H   0  0  0  0  0  0  0  0  0  0  0  0
    4.7088   -3.3010   -8.8744 H   0  0  0  0  0  0  0  0  0  0  0  0
    5.9251   -2.3785   -8.0100 H   0  0  0  0  0  0  0  0  0  0  0  0
    4.0593   -4.1809   -6.8400 H   0  0  0  0  0  0  0  0  0  0  0  0
    6.7675   -4.3759  -10.2785 H   0  0  0  0  0  0  0  0  0  0  0  0
    9.6739   -3.3558  -10.4678 H   0  0  0  0  0  0  0  0  0  0  0  0
    9.6682   -2.5386  -12.8007 H   0  0  0  0  0  0  0  0  0  0  0  0
    8.2999   -1.6519  -14.6466 H   0  0  0  0  0  0  0  0  0  0  0  0
    6.9099   -1.5868  -13.5844 H   0  0  0  0  0  0  0  0  0  0  0  0
    8.3530   -3.9359  -14.2964 H   0  0  0  0  0  0  0  0  0  0  0  0
    8.2717    0.0108  -12.0802 H   0  0  0  0  0  0  0  0  0  0  0  0
   10.7269   -0.4578  -13.4367 H   0  0  0  0  0  0  0  0  0  0  0  0
   10.9466   -1.0380  -11.1340 H   0  0  0  0  0  0  0  0  0  0  0  0
    9.4537    1.2584  -10.3474 H   0  0  0  0  0  0  0  0  0  0  0  0
    8.4313   -0.7444   -9.5166 H   0  0  0  0  0  0  0  0  0  0  0  0
   10.9521   -1.9056   -8.8763 H   0  0  0  0  0  0  0  0  0  0  0  0
    8.7757   -5.7421   -8.5806 H   0  0  0  0  0  0  0  0  0  0  0  0
    8.2044   -5.8359  -11.3839 H   0  0  0  0  0  0  0  0  0  0  0  0
    6.5612   -7.2133  -10.0906 H   0  0  0  0  0  0  0  0  0  0  0  0
    7.0783   -9.7928   -8.5800 H   0  0  0  0  0  0  0  0  0  0  0  0
    5.8858  -11.3433  -10.1111 H   0  0  0  0  0  0  0  0  0  0  0  0
    5.2100  -11.8394  -12.4125 H   0  0  0  0  0  0  0  0  0  0  0  0
    6.1910  -10.5063  -12.9972 H   0  0  0  0  0  0  0  0  0  0  0  0
    3.9560  -10.2881  -11.2511 H   0  0  0  0  0  0  0  0  0  0  0  0
    8.2217  -11.6053  -11.9575 H   0  0  0  0  0  0  0  0  0  0  0  0
    6.7599  -13.5612  -10.4907 H   0  0  0  0  0  0  0  0  0  0  0  0
    8.0745  -12.2721   -9.0129 H   0  0  0  0  0  0  0  0  0  0  0  0
   10.2781  -12.2434  -10.8244 H   0  0  0  0  0  0  0  0  0  0  0  0
    9.5947  -10.0051  -10.2700 H   0  0  0  0  0  0  0  0  0  0  0  0
    9.1717  -10.6951   -7.5408 H   0  0  0  0  0  0  0  0  0  0  0  0
    2.4368   -4.4428    0.1793 H   0  0  0  0  0  0  0  0  0  0  0  0
    2.1962   -2.1039    0.2052 H   0  0  0  0  0  0  0  0  0  0  0  0
    0.9446   -0.1165    0.9422 H   0  0  0  0  0  0  0  0  0  0  0  0
   -0.2527   -1.1491    1.6870 H   0  0  0  0  0  0  0  0  0  0  0  0
    0.4257   -1.1141   -1.0826 H   0  0  0  0  0  0  0  0  0  0  0  0
    1.7393   -1.9943    3.1426 H   0  0  0  0  0  0  0  0  0  0  0  0
    3.8298   -1.0075    1.4612 H   0  0  0  0  0  0  0  0  0  0  0  0
    4.0457   -3.3361    1.7629 H   0  0  0  0  0  0  0  0  0  0  0  0
    3.2321   -3.3393    4.4876 H   0  0  0  0  0  0  0  0  0  0  0  0
    1.7379   -4.7474    3.1080 H   0  0  0  0  0  0  0  0  0  0  0  0
    3.9815   -5.7389    1.6799 H   0  0  0  0  0  0  0  0  0  0  0  0
  1 68  1  0  0  0  0
  1 69  1  0  0  0  0
  1 70  1  0  0  0  0
  2  1  1  1  0  0  0
  2  3  1  0  0  0  0
  2  8  1  0  0  0  0
  2 19  1  0  0  0  0
  3  4  1  0  0  0  0
  3 71  1  0  0  0  0
  3 72  1  0  0  0  0
  4  5  1  0  0  0  0
  4 73  1  0  0  0  0
  4 74  1  0  0  0  0
  5  6  1  0  0  0  0
  5 75  1  0  0  0  0
  5 76  1  0  0  0  0
  6  7  1  0  0  0  0
  6  8  1  0  0  0  0
  6 54  1  1  0  0  0
  7 77  1  0  0  0  0
  7 78  1  0  0  0  0
  7 79  1  0  0  0  0
  8  9  1  0  0  0  0
  8 80  1  6  0  0  0
  9 10  1  0  0  0  0
  9 81  1  0  0  0  0
  9 82  1  0  0  0  0
 10 83  1  0  0  0  0
 10 84  1  0  0  0  0
 11 10  1  1  0  0  0
 11 12  1  0  0  0  0
 11 16  1  0  0  0  0
 11 19  1  0  0  0  0
 12 13  1  0  0  0  0
 12 85  1  0  0  0  0
 12 86  1  0  0  0  0
 13 14  2  0  0  0  0
 13 15  1  0  0  0  0
 14 87  1  0  0  0  0
 14 88  1  0  0  0  0
 15 16  1  0  0  0  0
 15 17  1  0  0  0  0
 15 20  1  6  0  0  0
 16 89  1  0  0  0  0
 16 90  1  0  0  0  0
 17 18  1  0  0  0  0
 17 91  1  0  0  0  0
 17 92  1  0  0  0  0
 18 19  1  0  0  0  0
 18 93  1  0  0  0  0
 18 94  1  0  0  0  0
 19 95  1  1  0  0  0
 20 21  1  0  0  0  0
 21 22  1  0  0  0  0
 21 41  1  0  0  0  0
 21 96  1  1  0  0  0
 22 23  1  0  0  0  0
 23 24  1  0  0  0  0
 23 26  1  0  0  0  0
 23 97  1  1  0  0  0
 24 25  1  0  0  0  0
 24 98  1  0  0  0  0
 24 99  1  0  0  0  0
 25100  1  0  0  0  0
 26 27  1  0  0  0  0
 26 39  1  0  0  0  0
 26101  1  6  0  0  0
 27 28  1  0  0  0  0
 28 29  1  0  0  0  0
 28 37  1  0  0  0  0
 28102  1  6  0  0  0
 29 30  1  0  0  0  0
 30 31  1  0  0  0  0
 30 33  1  0  0  0  0
 30103  1  6  0  0  0
 31 32  1  0  0  0  0
 31104  1  0  0  0  0
 31105  1  0  0  0  0
 32106  1  0  0  0  0
 33 34  1  0  0  0  0
 33 35  1  0  0  0  0
 33107  1  1  0  0  0
 34108  1  0  0  0  0
 35 36  1  0  0  0  0
 35 37  1  0  0  0  0
 35109  1  6  0  0  0
 36110  1  0  0  0  0
 37 38  1  0  0  0  0
 37111  1  1  0  0  0
 38112  1  0  0  0  0
 39 40  1  0  0  0  0
 39 41  1  0  0  0  0
 39113  1  1  0  0  0
 40114  1  0  0  0  0
 41 42  1  0  0  0  0
 41115  1  6  0  0  0
 42 43  1  0  0  0  0
 43 44  1  0  0  0  0
 43 52  1  0  0  0  0
 43116  1  1  0  0  0
 44 45  1  0  0  0  0
 45 46  1  0  0  0  0
 45 48  1  0  0  0  0
 45117  1  1  0  0  0
 46 47  1  0  0  0  0
 46118  1  0  0  0  0
 46119  1  0  0  0  0
 47120  1  0  0  0  0
 48 49  1  0  0  0  0
 48 50  1  0  0  0  0
 48121  1  6  0  0  0
 49122  1  0  0  0  0
 50 51  1  0  0  0  0
 50 52  1  0  0  0  0
 50123  1  1  0  0  0
 51124  1  0  0  0  0
 52 53  1  0  0  0  0
 52125  1  6  0  0  0
 53126  1  0  0  0  0
 54 55  2  0  0  0  0
 54 56  1  0  0  0  0
 56 57  1  0  0  0  0
 57 58  1  0  0  0  0
 57 66  1  0  0  0  0
 57127  1  6  0  0  0
 58 59  1  0  0  0  0
 59 60  1  0  0  0  0
 59 62  1  0  0  0  0
 59128  1  6  0  0  0
 60 61  1  0  0  0  0
 60129  1  0  0  0  0
 60130  1  0  0  0  0
 61131  1  0  0  0  0
 62 63  1  0  0  0  0
 62 64  1  0  0  0  0
 62132  1  1  0  0  0
 63133  1  0  0  0  0
 64 65  1  0  0  0  0
 64 66  1  0  0  0  0
 64134  1  6  0  0  0
 65135  1  0  0  0  0
 66 67  1  0  0  0  0
 66136  1  1  0  0  0
 67137  1  0  0  0  0
M  END
$$$$
Row9
 OpenBabel08252322323D

116122  0  0  1  0  0  0  0  0999 V2000
   -1.1296  -10.0870   -1.6796 C   0  0  0  0  0  0  0  0  0  0  0  0
   -1.7016   -8.6677   -2.0712 C   0  0  2  0  0  0  0  0  0  0  0  0
   -1.5822   -8.5299   -3.6466 C   0  0  0  0  0  0  0  0  0  0  0  0
   -0.2269   -7.9770   -4.2172 C   0  0  0  0  0  0  0  0  0  0  0  0
    0.9904   -8.0490   -3.2543 C   0  0  0  0  0  0  0  0  0  0  0  0
    0.7167   -7.4456   -1.8175 C   0  0  2  0  0  0  0  0  0  0  0  0
    1.5761   -8.2671   -0.7789 C   0  0  0  0  0  0  0  0  0  0  0  0
   -0.8467   -7.4585   -1.4893 C   0  0  2  0  0  0  0  0  0  0  0  0
   -1.2089   -7.1576   -0.0068 C   0  0  0  0  0  0  0  0  0  0  0  0
   -2.6566   -6.6109    0.1195 C   0  0  0  0  0  0  0  0  0  0  0  0
   -3.7181   -7.2606   -0.8563 C   0  0  2  0  0  0  0  0  0  0  0  0
   -4.3004   -6.2937   -1.9409 C   0  0  0  0  0  0  0  0  0  0  0  0
   -5.6821   -6.7242   -2.1215 C   0  0  0  0  0  0  0  0  0  0  0  0
   -6.4856   -6.1965   -3.0571 C   0  0  0  0  0  0  0  0  0  0  0  0
   -6.0695   -7.7893   -1.1969 C   0  0  2  0  0  0  0  0  0  0  0  0
   -5.0449   -7.5116   -0.0725 C   0  0  0  0  0  0  0  0  0  0  0  0
   -5.7590   -9.1867   -1.8388 C   0  0  0  0  0  0  0  0  0  0  0  0
   -4.3062   -9.3061   -2.4014 C   0  0  0  0  0  0  0  0  0  0  0  0
   -3.2103   -8.6348   -1.4869 C   0  0  1  0  0  0  0  0  0  0  0  0
   -7.4673   -7.6587   -0.7978 O   0  0  0  0  0  0  0  0  0  0  0  0
   -7.9531   -8.3441    0.3876 C   0  0  1  0  0  0  0  0  0  0  0  0
   -7.5273   -7.6869    1.6052 O   0  0  0  0  0  0  0  0  0  0  0  0
   -8.0500   -6.3525    1.8157 C   0  0  2  0  0  0  0  0  0  0  0  0
   -7.4327   -5.7981    3.1251 C   0  0  0  0  0  0  0  0  0  0  0  0
   -6.0145   -5.7231    3.0218 O   0  0  0  0  0  0  0  0  0  0  0  0
   -9.6071   -6.3864    1.8655 C   0  0  1  0  0  0  0  0  0  0  0  0
  -10.1567   -5.0724    1.9851 O   0  0  0  0  0  0  0  0  0  0  0  0
  -10.1650   -7.0790    0.5913 C   0  0  2  0  0  0  0  0  0  0  0  0
  -11.5799   -7.2201    0.7039 O   0  0  0  0  0  0  0  0  0  0  0  0
   -9.5088   -8.4707    0.3697 C   0  0  1  0  0  0  0  0  0  0  0  0
  -10.0486   -9.0339   -0.8528 O   0  0  0  0  0  0  0  0  0  0  0  0
   -9.7803  -10.4212   -1.1703 C   0  0  1  0  0  0  0  0  0  0  0  0
  -10.0249  -11.2626    0.0414 O   0  0  0  0  0  0  0  0  0  0  0  0
   -9.9336  -12.7143   -0.2996 C   0  0  1  0  0  0  0  0  0  0  0  0
  -10.2568  -13.4588    1.0212 C   0  0  0  0  0  0  0  0  0  0  0  0
   -9.3576  -13.0497    2.0482 O   0  0  0  0  0  0  0  0  0  0  0  0
  -10.8871  -13.1816   -1.4775 C   0  0  2  0  0  0  0  0  0  0  0  0
  -10.6605  -14.5468   -1.8309 O   0  0  0  0  0  0  0  0  0  0  0  0
  -10.6453  -12.2909   -2.7285 C   0  0  1  0  0  0  0  0  0  0  0  0
  -11.5957  -12.6145   -3.7448 O   0  0  0  0  0  0  0  0  0  0  0  0
  -10.7208  -10.7735   -2.3936 C   0  0  2  0  0  0  0  0  0  0  0  0
  -10.3948   -9.9926   -3.5425 O   0  0  0  0  0  0  0  0  0  0  0  0
    1.1856   -6.0055   -1.7932 C   0  0  0  0  0  0  0  0  0  0  0  0
    0.8448   -5.1924   -2.6857 O   0  0  0  0  0  0  0  0  0  0  0  0
    1.9563   -5.5603   -0.7618 O   0  0  0  0  0  0  0  0  0  0  0  0
    2.5535   -4.2873   -0.4944 C   0  0  1  0  0  0  0  0  0  0  0  0
    1.5520   -3.2474   -0.3702 O   0  0  0  0  0  0  0  0  0  0  0  0
    2.0593   -1.9614    0.0785 C   0  0  1  0  0  0  0  0  0  0  0  0
    0.8869   -0.9472    0.1135 C   0  0  0  0  0  0  0  0  0  0  0  0
    0.3435   -0.7357   -1.1842 O   0  0  0  0  0  0  0  0  0  0  0  0
    2.7338   -2.1112    1.4776 C   0  0  2  0  0  0  0  0  0  0  0  0
    3.2872   -0.8776    1.9352 O   0  0  0  0  0  0  0  0  0  0  0  0
    3.8528   -3.1841    1.4247 C   0  0  1  0  0  0  0  0  0  0  0  0
    4.3653   -3.4190    2.7353 O   0  0  0  0  0  0  0  0  0  0  0  0
    3.3095   -4.5104    0.8423 C   0  0  2  0  0  0  0  0  0  0  0  0
    4.3723   -5.4462    0.6629 O   0  0  0  0  0  0  0  0  0  0  0  0
   -0.1256  -10.1783   -2.0382 H   0  0  0  0  0  0  0  0  0  0  0  0
   -1.7365  -10.8501   -2.1203 H   0  0  0  0  0  0  0  0  0  0  0  0
   -1.1392  -10.1941   -0.6150 H   0  0  0  0  0  0  0  0  0  0  0  0
   -2.3609   -7.8724   -3.9723 H   0  0  0  0  0  0  0  0  0  0  0  0
   -1.6501   -9.5313   -4.0174 H   0  0  0  0  0  0  0  0  0  0  0  0
   -0.3761   -6.9511   -4.4819 H   0  0  0  0  0  0  0  0  0  0  0  0
    0.0193   -8.6082   -5.0454 H   0  0  0  0  0  0  0  0  0  0  0  0
    1.8008   -7.5082   -3.6967 H   0  0  0  0  0  0  0  0  0  0  0  0
    1.2118   -9.0866   -3.1152 H   0  0  0  0  0  0  0  0  0  0  0  0
    1.2584   -9.2889   -0.7821 H   0  0  0  0  0  0  0  0  0  0  0  0
    1.4426   -7.8551    0.1996 H   0  0  0  0  0  0  0  0  0  0  0  0
    2.6098   -8.2141   -1.0502 H   0  0  0  0  0  0  0  0  0  0  0  0
   -1.1618   -6.6145   -2.0665 H   0  0  0  0  0  0  0  0  0  0  0  0
   -0.5262   -6.4290    0.3780 H   0  0  0  0  0  0  0  0  0  0  0  0
   -1.1421   -8.0693    0.5493 H   0  0  0  0  0  0  0  0  0  0  0  0
   -2.6299   -5.5592   -0.0758 H   0  0  0  0  0  0  0  0  0  0  0  0
   -2.9783   -6.8581    1.1096 H   0  0  0  0  0  0  0  0  0  0  0  0
   -3.7551   -6.3830   -2.8572 H   0  0  0  0  0  0  0  0  0  0  0  0
   -4.2327   -5.2676   -1.6451 H   0  0  0  0  0  0  0  0  0  0  0  0
   -6.1368   -5.4454   -3.6729 H   0  0  0  0  0  0  0  0  0  0  0  0
   -7.4526   -6.5416   -3.1611 H   0  0  0  0  0  0  0  0  0  0  0  0
   -5.3236   -6.6496    0.4968 H   0  0  0  0  0  0  0  0  0  0  0  0
   -4.9705   -8.3106    0.6353 H   0  0  0  0  0  0  0  0  0  0  0  0
   -6.4474   -9.3511   -2.6413 H   0  0  0  0  0  0  0  0  0  0  0  0
   -5.8569   -9.9176   -1.0635 H   0  0  0  0  0  0  0  0  0  0  0  0
   -4.2772   -8.8363   -3.3623 H   0  0  0  0  0  0  0  0  0  0  0  0
   -4.0756  -10.3499   -2.4478 H   0  0  0  0  0  0  0  0  0  0  0  0
   -3.0850   -9.2789   -0.6417 H   0  0  0  0  0  0  0  0  0  0  0  0
   -7.5256   -9.3249    0.3717 H   0  0  0  0  0  0  0  0  0  0  0  0
   -7.7843   -5.7048    1.0065 H   0  0  0  0  0  0  0  0  0  0  0  0
   -7.6918   -6.4453    3.9369 H   0  0  0  0  0  0  0  0  0  0  0  0
   -7.8172   -4.8144    3.2966 H   0  0  0  0  0  0  0  0  0  0  0  0
   -5.6543   -6.6102    2.8661 H   0  0  0  0  0  0  0  0  0  0  0  0
   -9.8953   -6.9448    2.7315 H   0  0  0  0  0  0  0  0  0  0  0  0
   -9.9080   -4.5461    1.2092 H   0  0  0  0  0  0  0  0  0  0  0  0
   -9.9295   -6.4663   -0.2537 H   0  0  0  0  0  0  0  0  0  0  0  0
  -11.7894   -7.7759    1.4707 H   0  0  0  0  0  0  0  0  0  0  0  0
   -9.7420   -9.1486    1.1640 H   0  0  0  0  0  0  0  0  0  0  0  0
   -8.7636  -10.6073   -1.4470 H   0  0  0  0  0  0  0  0  0  0  0  0
   -8.9573  -12.9349   -0.6780 H   0  0  0  0  0  0  0  0  0  0  0  0
  -10.1600  -14.5130    0.8657 H   0  0  0  0  0  0  0  0  0  0  0  0
  -11.2575  -13.2243    1.3188 H   0  0  0  0  0  0  0  0  0  0  0  0
   -8.4481  -13.2597    1.7842 H   0  0  0  0  0  0  0  0  0  0  0  0
  -11.8966  -13.0843   -1.1363 H   0  0  0  0  0  0  0  0  0  0  0  0
   -9.7482  -14.6529   -2.1430 H   0  0  0  0  0  0  0  0  0  0  0  0
   -9.6548  -12.4913   -3.0801 H   0  0  0  0  0  0  0  0  0  0  0  0
  -12.4912  -12.4308   -3.4204 H   0  0  0  0  0  0  0  0  0  0  0  0
  -11.7245  -10.5367   -2.1084 H   0  0  0  0  0  0  0  0  0  0  0  0
   -9.4868  -10.1903   -3.8208 H   0  0  0  0  0  0  0  0  0  0  0  0
    3.1980   -3.9599   -1.2833 H   0  0  0  0  0  0  0  0  0  0  0  0
    2.8050   -1.5993   -0.5981 H   0  0  0  0  0  0  0  0  0  0  0  0
    1.2448   -0.0147    0.4971 H   0  0  0  0  0  0  0  0  0  0  0  0
    0.1163   -1.3453    0.7401 H   0  0  0  0  0  0  0  0  0  0  0  0
    1.0295   -0.3742   -1.7670 H   0  0  0  0  0  0  0  0  0  0  0  0
    1.9715   -2.4137    2.1648 H   0  0  0  0  0  0  0  0  0  0  0  0
    3.9815   -0.5878    1.3229 H   0  0  0  0  0  0  0  0  0  0  0  0
    4.6359   -2.8215    0.7921 H   0  0  0  0  0  0  0  0  0  0  0  0
    3.6536   -3.7475    3.3067 H   0  0  0  0  0  0  0  0  0  0  0  0
    2.6084   -4.9084    1.5458 H   0  0  0  0  0  0  0  0  0  0  0  0
    5.0117   -5.0910    0.0258 H   0  0  0  0  0  0  0  0  0  0  0  0
  1 57  1  0  0  0  0
  1 58  1  0  0  0  0
  1 59  1  0  0  0  0
  2  1  1  1  0  0  0
  2  3  1  0  0  0  0
  2  8  1  0  0  0  0
  2 19  1  0  0  0  0
  3  4  1  0  0  0  0
  3 60  1  0  0  0  0
  3 61  1  0  0  0  0
  4  5  1  0  0  0  0
  4 62  1  0  0  0  0
  4 63  1  0  0  0  0
  5  6  1  0  0  0  0
  5 64  1  0  0  0  0
  5 65  1  0  0  0  0
  6  7  1  0  0  0  0
  6  8  1  0  0  0  0
  6 43  1  1  0  0  0
  7 66  1  0  0  0  0
  7 67  1  0  0  0  0
  7 68  1  0  0  0  0
  8  9  1  0  0  0  0
  8 69  1  6  0  0  0
  9 10  1  0  0  0  0
  9 70  1  0  0  0  0
  9 71  1  0  0  0  0
 10 72  1  0  0  0  0
 10 73  1  0  0  0  0
 11 10  1  1  0  0  0
 11 12  1  0  0  0  0
 11 16  1  0  0  0  0
 11 19  1  0  0  0  0
 12 13  1  0  0  0  0
 12 74  1  0  0  0  0
 12 75  1  0  0  0  0
 13 14  2  0  0  0  0
 13 15  1  0  0  0  0
 14 76  1  0  0  0  0
 14 77  1  0  0  0  0
 15 16  1  0  0  0  0
 15 17  1  0  0  0  0
 15 20  1  1  0  0  0
 16 78  1  0  0  0  0
 16 79  1  0  0  0  0
 17 18  1  0  0  0  0
 17 80  1  0  0  0  0
 17 81  1  0  0  0  0
 18 19  1  0  0  0  0
 18 82  1  0  0  0  0
 18 83  1  0  0  0  0
 19 84  1  1  0  0  0
 20 21  1  0  0  0  0
 21 22  1  0  0  0  0
 21 30  1  0  0  0  0
 21 85  1  6  0  0  0
 22 23  1  0  0  0  0
 23 24  1  0  0  0  0
 23 26  1  0  0  0  0
 23 86  1  6  0  0  0
 24 25  1  0  0  0  0
 24 87  1  0  0  0  0
 24 88  1  0  0  0  0
 25 89  1  0  0  0  0
 26 27  1  0  0  0  0
 26 28  1  0  0  0  0
 26 90  1  1  0  0  0
 27 91  1  0  0  0  0
 28 29  1  0  0  0  0
 28 30  1  0  0  0  0
 28 92  1  6  0  0  0
 29 93  1  0  0  0  0
 30 31  1  0  0  0  0
 30 94  1  1  0  0  0
 31 32  1  0  0  0  0
 32 33  1  0  0  0  0
 32 41  1  0  0  0  0
 32 95  1  6  0  0  0
 33 34  1  0  0  0  0
 34 35  1  0  0  0  0
 34 37  1  0  0  0  0
 34 96  1  6  0  0  0
 35 36  1  0  0  0  0
 35 97  1  0  0  0  0
 35 98  1  0  0  0  0
 36 99  1  0  0  0  0
 37 38  1  0  0  0  0
 37 39  1  0  0  0  0
 37100  1  1  0  0  0
 38101  1  0  0  0  0
 39 40  1  0  0  0  0
 39 41  1  0  0  0  0
 39102  1  6  0  0  0
 40103  1  0  0  0  0
 41 42  1  0  0  0  0
 41104  1  1  0  0  0
 42105  1  0  0  0  0
 43 44  2  0  0  0  0
 43 45  1  0  0  0  0
 45 46  1  0  0  0  0
 46 47  1  0  0  0  0
 46 55  1  0  0  0  0
 46106  1  6  0  0  0
 47 48  1  0  0  0  0
 48 49  1  0  0  0  0
 48 51  1  0  0  0  0
 48107  1  6  0  0  0
 49 50  1  0  0  0  0
 49108  1  0  0  0  0
 49109  1  0  0  0  0
 50110  1  0  0  0  0
 51 52  1  0  0  0  0
 51 53  1  0  0  0  0
 51111  1  1  0  0  0
 52112  1  0  0  0  0
 53 54  1  0  0  0  0
 53 55  1  0  0  0  0
 53113  1  6  0  0  0
 54114  1  0  0  0  0
 55 56  1  0  0  0  0
 55115  1  1  0  0  0
 56116  1  0  0  0  0
M  END
$$$$
Row10
 OpenBabel08252322323D

116122  0  0  1  0  0  0  0  0999 V2000
    3.5249   -6.1970   -1.6691 C   0  0  0  0  0  0  0  0  0  0  0  0
    2.9633   -7.4445   -2.4540 C   0  0  1  0  0  0  0  0  0  0  0  0
    3.2213   -8.7051   -1.5407 C   0  0  0  0  0  0  0  0  0  0  0  0
    2.3774   -8.7803   -0.2355 C   0  0  0  0  0  0  0  0  0  0  0  0
    0.8638   -8.6025   -0.4918 C   0  0  0  0  0  0  0  0  0  0  0  0
    0.4560   -7.3620   -1.3720 C   0  0  2  0  0  0  0  0  0  0  0  0
   -1.0477   -7.6181   -1.7726 C   0  0  0  0  0  0  0  0  0  0  0  0
    1.3838   -7.3487   -2.6781 C   0  0  1  0  0  0  0  0  0  0  0  0
    0.9443   -6.2859   -3.7510 C   0  0  0  0  0  0  0  0  0  0  0  0
    1.9835   -5.9303   -4.8350 C   0  0  0  0  0  0  0  0  0  0  0  0
    2.9485   -7.1028   -5.1575 C   0  0  1  0  0  0  0  0  0  0  0  0
    2.2958   -8.2843   -5.9520 C   0  0  0  0  0  0  0  0  0  0  0  0
    3.3633   -8.7722   -6.8243 C   0  0  0  0  0  0  0  0  0  0  0  0
    3.2203   -9.8388   -7.6271 C   0  0  0  0  0  0  0  0  0  0  0  0
    4.5954   -7.9931   -6.6865 C   0  0  1  0  0  0  0  0  0  0  0  0
    3.9573   -6.6513   -6.2425 C   0  0  0  0  0  0  0  0  0  0  0  0
    5.4424   -8.6305   -5.5219 C   0  0  0  0  0  0  0  0  0  0  0  0
    4.6642   -8.7795   -4.1690 C   0  0  0  0  0  0  0  0  0  0  0  0
    3.7648   -7.5250   -3.8575 C   0  0  2  0  0  0  0  0  0  0  0  0
    5.3547   -7.8799   -7.9343 O   0  0  0  0  0  0  0  0  0  0  0  0
    6.3416   -6.8161   -8.0588 C   0  0  2  0  0  0  0  0  0  0  0  0
    5.6321   -5.5602   -8.2067 O   0  0  0  0  0  0  0  0  0  0  0  0
    6.4427   -4.3670   -8.2107 C   0  0  2  0  0  0  0  0  0  0  0  0
    5.5145   -3.1238   -8.2065 C   0  0  0  0  0  0  0  0  0  0  0  0
    4.6643   -3.1353   -7.0637 O   0  0  0  0  0  0  0  0  0  0  0  0
    7.3776   -4.4103   -9.4510 C   0  0  1  0  0  0  0  0  0  0  0  0
    8.2950   -3.3159   -9.4330 O   0  0  0  0  0  0  0  0  0  0  0  0
    8.1606   -5.7514   -9.4978 C   0  0  2  0  0  0  0  0  0  0  0  0
    8.8493   -5.8371  -10.7437 O   0  0  0  0  0  0  0  0  0  0  0  0
    7.2466   -7.0033   -9.3135 C   0  0  1  0  0  0  0  0  0  0  0  0
    8.1628   -8.1193   -9.2332 O   0  0  0  0  0  0  0  0  0  0  0  0
    7.6857   -9.4650   -9.4375 C   0  0  1  0  0  0  0  0  0  0  0  0
    6.8333   -9.5231  -10.6656 O   0  0  0  0  0  0  0  0  0  0  0  0
    6.5243  -10.9474  -11.0011 C   0  0  1  0  0  0  0  0  0  0  0  0
    5.6541  -10.9048  -12.2816 C   0  0  0  0  0  0  0  0  0  0  0  0
    4.4697  -10.1539  -12.0326 O   0  0  0  0  0  0  0  0  0  0  0  0
    7.8041  -11.8628  -11.2001 C   0  0  2  0  0  0  0  0  0  0  0  0
    7.4531  -13.2173  -11.4793 O   0  0  0  0  0  0  0  0  0  0  0  0
    8.6792  -11.8018   -9.9176 C   0  0  1  0  0  0  0  0  0  0  0  0
    9.8932  -12.5255  -10.1183 O   0  0  0  0  0  0  0  0  0  0  0  0
    9.0031  -10.3377   -9.5111 C   0  0  2  0  0  0  0  0  0  0  0  0
    9.6972  -10.3113   -8.2656 O   0  0  0  0  0  0  0  0  0  0  0  0
    0.4960   -6.0531   -0.6112 C   0  0  0  0  0  0  0  0  0  0  0  0
   -0.0976   -5.0492   -1.0746 O   0  0  0  0  0  0  0  0  0  0  0  0
    1.1402   -5.8712    0.5901 O   0  0  0  0  0  0  0  0  0  0  0  0
    1.7158   -4.6070    1.0019 C   0  0  1  0  0  0  0  0  0  0  0  0
    0.7734   -3.5106    1.0275 O   0  0  0  0  0  0  0  0  0  0  0  0
    1.4268   -2.2155    1.1028 C   0  0  1  0  0  0  0  0  0  0  0  0
    0.3552   -1.1089    0.9724 C   0  0  0  0  0  0  0  0  0  0  0  0
   -0.3448   -1.2672   -0.2593 O   0  0  0  0  0  0  0  0  0  0  0  0
    2.2750   -2.1007    2.4089 C   0  0  2  0  0  0  0  0  0  0  0  0
    3.0912   -0.9311    2.3622 O   0  0  0  0  0  0  0  0  0  0  0  0
    3.1916   -3.3433    2.6153 C   0  0  1  0  0  0  0  0  0  0  0  0
    3.7549   -3.3202    3.9253 O   0  0  0  0  0  0  0  0  0  0  0  0
    2.4299   -4.6793    2.3738 C   0  0  2  0  0  0  0  0  0  0  0  0
    3.3387   -5.7788    2.4084 O   0  0  0  0  0  0  0  0  0  0  0  0
    3.0183   -6.1084   -0.7308 H   0  0  0  0  0  0  0  0  0  0  0  0
    3.3642   -5.3105   -2.2463 H   0  0  0  0  0  0  0  0  0  0  0  0
    4.5732   -6.3258   -1.4977 H   0  0  0  0  0  0  0  0  0  0  0  0
    4.2548   -8.7037   -1.2637 H   0  0  0  0  0  0  0  0  0  0  0  0
    2.9283   -9.5521   -2.1252 H   0  0  0  0  0  0  0  0  0  0  0  0
    2.7050   -8.0080    0.4287 H   0  0  0  0  0  0  0  0  0  0  0  0
    2.5213   -9.7530    0.1864 H   0  0  0  0  0  0  0  0  0  0  0  0
    0.3800   -8.5041    0.4575 H   0  0  0  0  0  0  0  0  0  0  0  0
    0.5614   -9.4646   -1.0488 H   0  0  0  0  0  0  0  0  0  0  0  0
   -1.1207   -8.5377   -2.3147 H   0  0  0  0  0  0  0  0  0  0  0  0
   -1.3952   -6.8136   -2.3865 H   0  0  0  0  0  0  0  0  0  0  0  0
   -1.6474   -7.6767   -0.8884 H   0  0  0  0  0  0  0  0  0  0  0  0
    1.1792   -8.3065   -3.1090 H   0  0  0  0  0  0  0  0  0  0  0  0
    0.6947   -5.3842   -3.2319 H   0  0  0  0  0  0  0  0  0  0  0  0
    0.1290   -6.7362   -4.2777 H   0  0  0  0  0  0  0  0  0  0  0  0
    2.5614   -5.0972   -4.4932 H   0  0  0  0  0  0  0  0  0  0  0  0
    1.4458   -5.7023   -5.7315 H   0  0  0  0  0  0  0  0  0  0  0  0
    1.4641   -7.9381   -6.5293 H   0  0  0  0  0  0  0  0  0  0  0  0
    1.9165   -9.0486   -5.3063 H   0  0  0  0  0  0  0  0  0  0  0  0
    2.3169  -10.3360   -7.6685 H   0  0  0  0  0  0  0  0  0  0  0  0
    4.0137  -10.1614   -8.2028 H   0  0  0  0  0  0  0  0  0  0  0  0
    4.6928   -5.9894   -5.8352 H   0  0  0  0  0  0  0  0  0  0  0  0
    3.5052   -6.1076   -7.0455 H   0  0  0  0  0  0  0  0  0  0  0  0
    6.2975   -8.0106   -5.3507 H   0  0  0  0  0  0  0  0  0  0  0  0
    5.7037   -9.6191   -5.8370 H   0  0  0  0  0  0  0  0  0  0  0  0
    5.3722   -8.9011   -3.3760 H   0  0  0  0  0  0  0  0  0  0  0  0
    4.0218   -9.6311   -4.2522 H   0  0  0  0  0  0  0  0  0  0  0  0
    4.4659   -6.7519   -3.6215 H   0  0  0  0  0  0  0  0  0  0  0  0
    6.9629   -6.8326   -7.1878 H   0  0  0  0  0  0  0  0  0  0  0  0
    7.0580   -4.3078   -7.3373 H   0  0  0  0  0  0  0  0  0  0  0  0
    4.9135   -3.1310   -9.0917 H   0  0  0  0  0  0  0  0  0  0  0  0
    6.1199   -2.2420   -8.1765 H   0  0  0  0  0  0  0  0  0  0  0  0
    4.1104   -3.9314   -7.0808 H   0  0  0  0  0  0  0  0  0  0  0  0
    6.7670   -4.3329  -10.3263 H   0  0  0  0  0  0  0  0  0  0  0  0
    8.8544   -3.3759   -8.6428 H   0  0  0  0  0  0  0  0  0  0  0  0
    8.8470   -5.7526   -8.6770 H   0  0  0  0  0  0  0  0  0  0  0  0
    8.2059   -5.8342  -11.4696 H   0  0  0  0  0  0  0  0  0  0  0  0
    6.5572   -7.1658  -10.1155 H   0  0  0  0  0  0  0  0  0  0  0  0
    7.0493   -9.8321   -8.6596 H   0  0  0  0  0  0  0  0  0  0  0  0
    6.0137  -11.4026  -10.1783 H   0  0  0  0  0  0  0  0  0  0  0  0
    5.3899  -11.9021  -12.5653 H   0  0  0  0  0  0  0  0  0  0  0  0
    6.2080  -10.4413  -13.0711 H   0  0  0  0  0  0  0  0  0  0  0  0
    3.9660  -10.5724  -11.3171 H   0  0  0  0  0  0  0  0  0  0  0  0
    8.3501  -11.4916  -12.0421 H   0  0  0  0  0  0  0  0  0  0  0  0
    6.9552  -13.5830  -10.7315 H   0  0  0  0  0  0  0  0  0  0  0  0
    8.1197  -12.2489   -9.1226 H   0  0  0  0  0  0  0  0  0  0  0  0
   10.3975  -12.1174  -10.8394 H   0  0  0  0  0  0  0  0  0  0  0  0
    9.6359   -9.9130  -10.2622 H   0  0  0  0  0  0  0  0  0  0  0  0
    9.1349  -10.6938   -7.5739 H   0  0  0  0  0  0  0  0  0  0  0  0
    2.4395   -4.4087    0.2391 H   0  0  0  0  0  0  0  0  0  0  0  0
    2.1187   -2.0975    0.2952 H   0  0  0  0  0  0  0  0  0  0  0  0
    0.8289   -0.1497    0.9926 H   0  0  0  0  0  0  0  0  0  0  0  0
   -0.3349   -1.1834    1.7867 H   0  0  0  0  0  0  0  0  0  0  0  0
    0.2807   -1.1997   -0.9976 H   0  0  0  0  0  0  0  0  0  0  0  0
    1.5888   -2.0434    3.2279 H   0  0  0  0  0  0  0  0  0  0  0  0
    3.7076   -0.9965    1.6161 H   0  0  0  0  0  0  0  0  0  0  0  0
    3.9765   -3.2923    1.8899 H   0  0  0  0  0  0  0  0  0  0  0  0
    3.0441   -3.3664    4.5838 H   0  0  0  0  0  0  0  0  0  0  0  0
    1.7036   -4.8260    3.1457 H   0  0  0  0  0  0  0  0  0  0  0  0
    4.0081   -5.6670    1.7153 H   0  0  0  0  0  0  0  0  0  0  0  0
  1 57  1  0  0  0  0
  1 58  1  0  0  0  0
  1 59  1  0  0  0  0
  2  1  1  1  0  0  0
  2  3  1  0  0  0  0
  2  8  1  0  0  0  0
  2 19  1  0  0  0  0
  3  4  1  0  0  0  0
  3 60  1  0  0  0  0
  3 61  1  0  0  0  0
  4  5  1  0  0  0  0
  4 62  1  0  0  0  0
  4 63  1  0  0  0  0
  5  6  1  0  0  0  0
  5 64  1  0  0  0  0
  5 65  1  0  0  0  0
  6  7  1  0  0  0  0
  6  8  1  0  0  0  0
  6 43  1  1  0  0  0
  7 66  1  0  0  0  0
  7 67  1  0  0  0  0
  7 68  1  0  0  0  0
  8  9  1  0  0  0  0
  8 69  1  6  0  0  0
  9 10  1  0  0  0  0
  9 70  1  0  0  0  0
  9 71  1  0  0  0  0
 10 72  1  0  0  0  0
 10 73  1  0  0  0  0
 11 10  1  1  0  0  0
 11 12  1  0  0  0  0
 11 16  1  0  0  0  0
 11 19  1  0  0  0  0
 12 13  1  0  0  0  0
 12 74  1  0  0  0  0
 12 75  1  0  0  0  0
 13 14  2  0  0  0  0
 13 15  1  0  0  0  0
 14 76  1  0  0  0  0
 14 77  1  0  0  0  0
 15 16  1  0  0  0  0
 15 17  1  0  0  0  0
 15 20  1  6  0  0  0
 16 78  1  0  0  0  0
 16 79  1  0  0  0  0
 17 18  1  0  0  0  0
 17 80  1  0  0  0  0
 17 81  1  0  0  0  0
 18 19  1  0  0  0  0
 18 82  1  0  0  0  0
 18 83  1  0  0  0  0
 19 84  1  1  0  0  0
 20 21  1  0  0  0  0
 21 22  1  0  0  0  0
 21 30  1  0  0  0  0
 21 85  1  1  0  0  0
 22 23  1  0  0  0  0
 23 24  1  0  0  0  0
 23 26  1  0  0  0  0
 23 86  1  1  0  0  0
 24 25  1  0  0  0  0
 24 87  1  0  0  0  0
 24 88  1  0  0  0  0
 25 89  1  0  0  0  0
 26 27  1  0  0  0  0
 26 28  1  0  0  0  0
 26 90  1  6  0  0  0
 27 91  1  0  0  0  0
 28 29  1  0  0  0  0
 28 30  1  0  0  0  0
 28 92  1  1  0  0  0
 29 93  1  0  0  0  0
 30 31  1  0  0  0  0
 30 94  1  6  0  0  0
 31 32  1  0  0  0  0
 32 33  1  0  0  0  0
 32 41  1  0  0  0  0
 32 95  1  1  0  0  0
 33 34  1  0  0  0  0
 34 35  1  0  0  0  0
 34 37  1  0  0  0  0
 34 96  1  1  0  0  0
 35 36  1  0  0  0  0
 35 97  1  0  0  0  0
 35 98  1  0  0  0  0
 36 99  1  0  0  0  0
 37 38  1  0  0  0  0
 37 39  1  0  0  0  0
 37100  1  6  0  0  0
 38101  1  0  0  0  0
 39 40  1  0  0  0  0
 39 41  1  0  0  0  0
 39102  1  1  0  0  0
 40103  1  0  0  0  0
 41 42  1  0  0  0  0
 41104  1  6  0  0  0
 42105  1  0  0  0  0
 43 44  2  0  0  0  0
 43 45  1  0  0  0  0
 45 46  1  0  0  0  0
 46 47  1  0  0  0  0
 46 55  1  0  0  0  0
 46106  1  6  0  0  0
 47 48  1  0  0  0  0
 48 49  1  0  0  0  0
 48 51  1  0  0  0  0
 48107  1  6  0  0  0
 49 50  1  0  0  0  0
 49108  1  0  0  0  0
 49109  1  0  0  0  0
 50110  1  0  0  0  0
 51 52  1  0  0  0  0
 51 53  1  0  0  0  0
 51111  1  1  0  0  0
 52112  1  0  0  0  0
 53 54  1  0  0  0  0
 53 55  1  0  0  0  0
 53113  1  6  0  0  0
 54114  1  0  0  0  0
 55 56  1  0  0  0  0
 55115  1  1  0  0  0
 56116  1  0  0  0  0
M  END
$$$$
Row11
 OpenBabel08252322323D

116122  0  0  1  0  0  0  0  0999 V2000
    3.5249   -6.1970   -1.6691 C   0  0  0  0  0  0  0  0  0  0  0  0
    2.9633   -7.4445   -2.4540 C   0  0  1  0  0  0  0  0  0  0  0  0
    3.2213   -8.7051   -1.5407 C   0  0  0  0  0  0  0  0  0  0  0  0
    2.3774   -8.7803   -0.2355 C   0  0  0  0  0  0  0  0  0  0  0  0
    0.8638   -8.6025   -0.4918 C   0  0  0  0  0  0  0  0  0  0  0  0
    0.4560   -7.3620   -1.3720 C   0  0  2  0  0  0  0  0  0  0  0  0
   -1.0477   -7.6181   -1.7726 C   0  0  0  0  0  0  0  0  0  0  0  0
    1.3838   -7.3487   -2.6781 C   0  0  1  0  0  0  0  0  0  0  0  0
    0.9443   -6.2859   -3.7510 C   0  0  0  0  0  0  0  0  0  0  0  0
    1.9835   -5.9303   -4.8350 C   0  0  0  0  0  0  0  0  0  0  0  0
    2.9485   -7.1028   -5.1575 C   0  0  1  0  0  0  0  0  0  0  0  0
    2.2958   -8.2843   -5.9520 C   0  0  0  0  0  0  0  0  0  0  0  0
    3.3633   -8.7722   -6.8243 C   0  0  0  0  0  0  0  0  0  0  0  0
    3.2203   -9.8388   -7.6271 C   0  0  0  0  0  0  0  0  0  0  0  0
    4.5954   -7.9931   -6.6865 C   0  0  1  0  0  0  0  0  0  0  0  0
    3.9573   -6.6513   -6.2425 C   0  0  0  0  0  0  0  0  0  0  0  0
    5.4424   -8.6305   -5.5219 C   0  0  0  0  0  0  0  0  0  0  0  0
    4.6642   -8.7795   -4.1690 C   0  0  0  0  0  0  0  0  0  0  0  0
    3.7648   -7.5250   -3.8575 C   0  0  2  0  0  0  0  0  0  0  0  0
    5.3547   -7.8799   -7.9343 O   0  0  0  0  0  0  0  0  0  0  0  0
    6.3416   -6.8161   -8.0588 C   0  0  2  0  0  0  0  0  0  0  0  0
    5.6321   -5.5602   -8.2067 O   0  0  0  0  0  0  0  0  0  0  0  0
    6.4427   -4.3670   -8.2107 C   0  0  2  0  0  0  0  0  0  0  0  0
    5.5145   -3.1238   -8.2065 C   0  0  0  0  0  0  0  0  0  0  0  0
    4.6643   -3.1353   -7.0637 O   0  0  0  0  0  0  0  0  0  0  0  0
    7.3776   -4.4103   -9.4510 C   0  0  1  0  0  0  0  0  0  0  0  0
    8.2950   -3.3159   -9.4330 O   0  0  0  0  0  0  0  0  0  0  0  0
    8.1606   -5.7514   -9.4978 C   0  0  2  0  0  0  0  0  0  0  0  0
    8.8493   -5.8371  -10.7437 O   0  0  0  0  0  0  0  0  0  0  0  0
    7.2466   -7.0033   -9.3135 C   0  0  1  0  0  0  0  0  0  0  0  0
    8.1628   -8.1193   -9.2332 O   0  0  0  0  0  0  0  0  0  0  0  0
    7.6857   -9.4650   -9.4375 C   0  0  1  0  0  0  0  0  0  0  0  0
    6.8333   -9.5231  -10.6656 O   0  0  0  0  0  0  0  0  0  0  0  0
    6.5243  -10.9474  -11.0011 C   0  0  1  0  0  0  0  0  0  0  0  0
    5.6541  -10.9048  -12.2816 C   0  0  0  0  0  0  0  0  0  0  0  0
    4.4697  -10.1539  -12.0326 O   0  0  0  0  0  0  0  0  0  0  0  0
    7.8041  -11.8628  -11.2001 C   0  0  2  0  0  0  0  0  0  0  0  0
    7.4531  -13.2173  -11.4793 O   0  0  0  0  0  0  0  0  0  0  0  0
    8.6792  -11.8018   -9.9176 C   0  0  1  0  0  0  0  0  0  0  0  0
    9.8932  -12.5255  -10.1183 O   0  0  0  0  0  0  0  0  0  0  0  0
    9.0031  -10.3377   -9.5111 C   0  0  2  0  0  0  0  0  0  0  0  0
    9.6972  -10.3113   -8.2656 O   0  0  0  0  0  0  0  0  0  0  0  0
    0.4960   -6.0531   -0.6112 C   0  0  0  0  0  0  0  0  0  0  0  0
   -0.0976   -5.0492   -1.0746 O   0  0  0  0  0  0  0  0  0  0  0  0
    1.1402   -5.8712    0.5901 O   0  0  0  0  0  0  0  0  0  0  0  0
    1.7158   -4.6070    1.0019 C   0  0  1  0  0  0  0  0  0  0  0  0
    0.7734   -3.5106    1.0275 O   0  0  0  0  0  0  0  0  0  0  0  0
    1.4268   -2.2155    1.1028 C   0  0  1  0  0  0  0  0  0  0  0  0
    0.3552   -1.1089    0.9724 C   0  0  0  0  0  0  0  0  0  0  0  0
   -0.3448   -1.2672   -0.2593 O   0  0  0  0  0  0  0  0  0  0  0  0
    2.2750   -2.1007    2.4089 C   0  0  2  0  0  0  0  0  0  0  0  0
    3.0912   -0.9311    2.3622 O   0  0  0  0  0  0  0  0  0  0  0  0
    3.1916   -3.3433    2.6153 C   0  0  1  0  0  0  0  0  0  0  0  0
    3.7549   -3.3202    3.9253 O   0  0  0  0  0  0  0  0  0  0  0  0
    2.4299   -4.6793    2.3738 C   0  0  2  0  0  0  0  0  0  0  0  0
    3.3387   -5.7788    2.4084 O   0  0  0  0  0  0  0  0  0  0  0  0
    3.0183   -6.1084   -0.7308 H   0  0  0  0  0  0  0  0  0  0  0  0
    3.3642   -5.3105   -2.2463 H   0  0  0  0  0  0  0  0  0  0  0  0
    4.5732   -6.3258   -1.4977 H   0  0  0  0  0  0  0  0  0  0  0  0
    4.2548   -8.7037   -1.2637 H   0  0  0  0  0  0  0  0  0  0  0  0
    2.9283   -9.5521   -2.1252 H   0  0  0  0  0  0  0  0  0  0  0  0
    2.7050   -8.0080    0.4287 H   0  0  0  0  0  0  0  0  0  0  0  0
    2.5213   -9.7530    0.1864 H   0  0  0  0  0  0  0  0  0  0  0  0
    0.3800   -8.5041    0.4575 H   0  0  0  0  0  0  0  0  0  0  0  0
    0.5614   -9.4646   -1.0488 H   0  0  0  0  0  0  0  0  0  0  0  0
   -1.1207   -8.5377   -2.3147 H   0  0  0  0  0  0  0  0  0  0  0  0
   -1.3952   -6.8136   -2.3865 H   0  0  0  0  0  0  0  0  0  0  0  0
   -1.6474   -7.6767   -0.8884 H   0  0  0  0  0  0  0  0  0  0  0  0
    1.1792   -8.3065   -3.1090 H   0  0  0  0  0  0  0  0  0  0  0  0
    0.6947   -5.3842   -3.2319 H   0  0  0  0  0  0  0  0  0  0  0  0
    0.1290   -6.7362   -4.2777 H   0  0  0  0  0  0  0  0  0  0  0  0
    2.5614   -5.0972   -4.4932 H   0  0  0  0  0  0  0  0  0  0  0  0
    1.4458   -5.7023   -5.7315 H   0  0  0  0  0  0  0  0  0  0  0  0
    1.4641   -7.9381   -6.5293 H   0  0  0  0  0  0  0  0  0  0  0  0
    1.9165   -9.0486   -5.3063 H   0  0  0  0  0  0  0  0  0  0  0  0
    2.3169  -10.3360   -7.6685 H   0  0  0  0  0  0  0  0  0  0  0  0
    4.0137  -10.1614   -8.2028 H   0  0  0  0  0  0  0  0  0  0  0  0
    4.6928   -5.9894   -5.8352 H   0  0  0  0  0  0  0  0  0  0  0  0
    3.5052   -6.1076   -7.0455 H   0  0  0  0  0  0  0  0  0  0  0  0
    6.2975   -8.0106   -5.3507 H   0  0  0  0  0  0  0  0  0  0  0  0
    5.7037   -9.6191   -5.8370 H   0  0  0  0  0  0  0  0  0  0  0  0
    5.3722   -8.9011   -3.3760 H   0  0  0  0  0  0  0  0  0  0  0  0
    4.0218   -9.6311   -4.2522 H   0  0  0  0  0  0  0  0  0  0  0  0
    4.4659   -6.7519   -3.6215 H   0  0  0  0  0  0  0  0  0  0  0  0
    6.9629   -6.8326   -7.1878 H   0  0  0  0  0  0  0  0  0  0  0  0
    7.0580   -4.3078   -7.3373 H   0  0  0  0  0  0  0  0  0  0  0  0
    4.9135   -3.1310   -9.0917 H   0  0  0  0  0  0  0  0  0  0  0  0
    6.1199   -2.2420   -8.1765 H   0  0  0  0  0  0  0  0  0  0  0  0
    4.1104   -3.9314   -7.0808 H   0  0  0  0  0  0  0  0  0  0  0  0
    6.7670   -4.3329  -10.3263 H   0  0  0  0  0  0  0  0  0  0  0  0
    8.8544   -3.3759   -8.6428 H   0  0  0  0  0  0  0  0  0  0  0  0
    8.8470   -5.7526   -8.6770 H   0  0  0  0  0  0  0  0  0  0  0  0
    8.2059   -5.8342  -11.4696 H   0  0  0  0  0  0  0  0  0  0  0  0
    6.5572   -7.1658  -10.1155 H   0  0  0  0  0  0  0  0  0  0  0  0
    7.0493   -9.8321   -8.6596 H   0  0  0  0  0  0  0  0  0  0  0  0
    6.0137  -11.4026  -10.1783 H   0  0  0  0  0  0  0  0  0  0  0  0
    5.3899  -11.9021  -12.5653 H   0  0  0  0  0  0  0  0  0  0  0  0
    6.2080  -10.4413  -13.0711 H   0  0  0  0  0  0  0  0  0  0  0  0
    3.9660  -10.5724  -11.3171 H   0  0  0  0  0  0  0  0  0  0  0  0
    8.3501  -11.4916  -12.0421 H   0  0  0  0  0  0  0  0  0  0  0  0
    6.9552  -13.5830  -10.7315 H   0  0  0  0  0  0  0  0  0  0  0  0
    8.1197  -12.2489   -9.1226 H   0  0  0  0  0  0  0  0  0  0  0  0
   10.3975  -12.1174  -10.8394 H   0  0  0  0  0  0  0  0  0  0  0  0
    9.6359   -9.9130  -10.2622 H   0  0  0  0  0  0  0  0  0  0  0  0
    9.1349  -10.6938   -7.5739 H   0  0  0  0  0  0  0  0  0  0  0  0
    2.4395   -4.4087    0.2391 H   0  0  0  0  0  0  0  0  0  0  0  0
    2.1187   -2.0975    0.2952 H   0  0  0  0  0  0  0  0  0  0  0  0
    0.8289   -0.1497    0.9926 H   0  0  0  0  0  0  0  0  0  0  0  0
   -0.3349   -1.1834    1.7867 H   0  0  0  0  0  0  0  0  0  0  0  0
    0.2807   -1.1997   -0.9976 H   0  0  0  0  0  0  0  0  0  0  0  0
    1.5888   -2.0434    3.2279 H   0  0  0  0  0  0  0  0  0  0  0  0
    3.7076   -0.9965    1.6161 H   0  0  0  0  0  0  0  0  0  0  0  0
    3.9765   -3.2923    1.8899 H   0  0  0  0  0  0  0  0  0  0  0  0
    3.0441   -3.3664    4.5838 H   0  0  0  0  0  0  0  0  0  0  0  0
    1.7036   -4.8260    3.1457 H   0  0  0  0  0  0  0  0  0  0  0  0
    4.0081   -5.6670    1.7153 H   0  0  0  0  0  0  0  0  0  0  0  0
  1 57  1  0  0  0  0
  1 58  1  0  0  0  0
  1 59  1  0  0  0  0
  2  1  1  1  0  0  0
  2  3  1  0  0  0  0
  2  8  1  0  0  0  0
  2 19  1  0  0  0  0
  3  4  1  0  0  0  0
  3 60  1  0  0  0  0
  3 61  1  0  0  0  0
  4  5  1  0  0  0  0
  4 62  1  0  0  0  0
  4 63  1  0  0  0  0
  5  6  1  0  0  0  0
  5 64  1  0  0  0  0
  5 65  1  0  0  0  0
  6  7  1  0  0  0  0
  6  8  1  0  0  0  0
  6 43  1  1  0  0  0
  7 66  1  0  0  0  0
  7 67  1  0  0  0  0
  7 68  1  0  0  0  0
  8  9  1  0  0  0  0
  8 69  1  6  0  0  0
  9 10  1  0  0  0  0
  9 70  1  0  0  0  0
  9 71  1  0  0  0  0
 10 72  1  0  0  0  0
 10 73  1  0  0  0  0
 11 10  1  1  0  0  0
 11 12  1  0  0  0  0
 11 16  1  0  0  0  0
 11 19  1  0  0  0  0
 12 13  1  0  0  0  0
 12 74  1  0  0  0  0
 12 75  1  0  0  0  0
 13 14  2  0  0  0  0
 13 15  1  0  0  0  0
 14 76  1  0  0  0  0
 14 77  1  0  0  0  0
 15 16  1  0  0  0  0
 15 17  1  0  0  0  0
 15 20  1  6  0  0  0
 16 78  1  0  0  0  0
 16 79  1  0  0  0  0
 17 18  1  0  0  0  0
 17 80  1  0  0  0  0
 17 81  1  0  0  0  0
 18 19  1  0  0  0  0
 18 82  1  0  0  0  0
 18 83  1  0  0  0  0
 19 84  1  1  0  0  0
 20 21  1  0  0  0  0
 21 22  1  0  0  0  0
 21 30  1  0  0  0  0
 21 85  1  1  0  0  0
 22 23  1  0  0  0  0
 23 24  1  0  0  0  0
 23 26  1  0  0  0  0
 23 86  1  1  0  0  0
 24 25  1  0  0  0  0
 24 87  1  0  0  0  0
 24 88  1  0  0  0  0
 25 89  1  0  0  0  0
 26 27  1  0  0  0  0
 26 28  1  0  0  0  0
 26 90  1  6  0  0  0
 27 91  1  0  0  0  0
 28 29  1  0  0  0  0
 28 30  1  0  0  0  0
 28 92  1  1  0  0  0
 29 93  1  0  0  0  0
 30 31  1  0  0  0  0
 30 94  1  6  0  0  0
 31 32  1  0  0  0  0
 32 33  1  0  0  0  0
 32 41  1  0  0  0  0
 32 95  1  1  0  0  0
 33 34  1  0  0  0  0
 34 35  1  0  0  0  0
 34 37  1  0  0  0  0
 34 96  1  1  0  0  0
 35 36  1  0  0  0  0
 35 97  1  0  0  0  0
 35 98  1  0  0  0  0
 36 99  1  0  0  0  0
 37 38  1  0  0  0  0
 37 39  1  0  0  0  0
 37100  1  6  0  0  0
 38101  1  0  0  0  0
 39 40  1  0  0  0  0
 39 41  1  0  0  0  0
 39102  1  1  0  0  0
 40103  1  0  0  0  0
 41 42  1  0  0  0  0
 41104  1  6  0  0  0
 42105  1  0  0  0  0
 43 44  2  0  0  0  0
 43 45  1  0  0  0  0
 45 46  1  0  0  0  0
 46 47  1  0  0  0  0
 46 55  1  0  0  0  0
 46106  1  6  0  0  0
 47 48  1  0  0  0  0
 48 49  1  0  0  0  0
 48 51  1  0  0  0  0
 48107  1  6  0  0  0
 49 50  1  0  0  0  0
 49108  1  0  0  0  0
 49109  1  0  0  0  0
 50110  1  0  0  0  0
 51 52  1  0  0  0  0
 51 53  1  0  0  0  0
 51111  1  1  0  0  0
 52112  1  0  0  0  0
 53 54  1  0  0  0  0
 53 55  1  0  0  0  0
 53113  1  6  0  0  0
 54114  1  0  0  0  0
 55 56  1  0  0  0  0
 55115  1  1  0  0  0
 56116  1  0  0  0  0
M  END
$$$$
Row12
 OpenBabel08252322323D

137144  0  0  1  0  0  0  0  0999 V2000
    3.8236   -5.0991   -2.1591 C   0  0  0  0  0  0  0  0  0  0  0  0
    3.4669   -6.3406   -3.0716 C   0  0  1  0  0  0  0  0  0  0  0  0
    4.2199   -7.5916   -2.4714 C   0  0  0  0  0  0  0  0  0  0  0  0
    3.7335   -8.0511   -1.0766 C   0  0  0  0  0  0  0  0  0  0  0  0
    2.2250   -8.3836   -1.1244 C   0  0  0  0  0  0  0  0  0  0  0  0
    1.3022   -7.2189   -1.6622 C   0  0  2  0  0  0  0  0  0  0  0  0
   -0.0990   -7.8856   -1.9181 C   0  0  0  0  0  0  0  0  0  0  0  0
    1.9087   -6.6582   -3.0383 C   0  0  1  0  0  0  0  0  0  0  0  0
    1.0458   -5.5464   -3.7483 C   0  0  0  0  0  0  0  0  0  0  0  0
    1.7256   -4.7767   -4.9166 C   0  0  0  0  0  0  0  0  0  0  0  0
    2.8308   -5.6064   -5.6285 C   0  0  1  0  0  0  0  0  0  0  0  0
    2.2362   -6.7841   -6.4783 C   0  0  0  0  0  0  0  0  0  0  0  0
    3.1304   -6.9053   -7.6171 C   0  0  0  0  0  0  0  0  0  0  0  0
    2.9245   -7.7947   -8.6003 C   0  0  0  0  0  0  0  0  0  0  0  0
    4.2334   -5.9463   -7.5607 C   0  0  1  0  0  0  0  0  0  0  0  0
    3.4997   -4.8114   -6.7944 C   0  0  0  0  0  0  0  0  0  0  0  0
    5.3961   -6.5291   -6.6812 C   0  0  0  0  0  0  0  0  0  0  0  0
    4.9654   -7.0116   -5.2653 C   0  0  0  0  0  0  0  0  0  0  0  0
    3.9618   -6.0157   -4.5764 C   0  0  2  0  0  0  0  0  0  0  0  0
    4.6839   -5.5797   -8.8965 O   0  0  0  0  0  0  0  0  0  0  0  0
    5.6119   -4.4773   -9.0793 C   0  0  1  0  0  0  0  0  0  0  0  0
    6.9410   -4.7194   -8.5642 O   0  0  0  0  0  0  0  0  0  0  0  0
    7.6817   -5.7667   -9.2246 C   0  0  2  0  0  0  0  0  0  0  0  0
    9.0251   -5.9829   -8.4787 C   0  0  0  0  0  0  0  0  0  0  0  0
    8.8070   -6.3018   -7.1099 O   0  0  0  0  0  0  0  0  0  0  0  0
    7.9119   -5.3625  -10.7013 C   0  0  1  0  0  0  0  0  0  0  0  0
    8.5576   -6.4223  -11.4106 O   0  0  0  0  0  0  0  0  0  0  0  0
    6.5873   -4.9974  -11.4255 C   0  0  2  0  0  0  0  0  0  0  0  0
    7.0573   -4.3507  -12.6282 O   0  0  0  0  0  0  0  0  0  0  0  0
    6.2273   -4.3110  -13.7974 C   0  0  2  0  0  0  0  0  0  0  0  0
    5.8926   -5.6538  -14.2137 O   0  0  0  0  0  0  0  0  0  0  0  0
    5.1502   -5.7429  -15.4504 C   0  0  2  0  0  0  0  0  0  0  0  0
    4.7849   -7.2301  -15.6797 C   0  0  0  0  0  0  0  0  0  0  0  0
    3.9667   -7.7023  -14.6130 O   0  0  0  0  0  0  0  0  0  0  0  0
    5.9884   -5.1342  -16.6150 C   0  0  1  0  0  0  0  0  0  0  0  0
    5.2465   -5.1398  -17.8335 O   0  0  0  0  0  0  0  0  0  0  0  0
    6.4029   -3.6756  -16.2764 C   0  0  2  0  0  0  0  0  0  0  0  0
    7.2960   -3.1735  -17.2706 O   0  0  0  0  0  0  0  0  0  0  0  0
    7.0753   -3.5927  -14.8827 C   0  0  1  0  0  0  0  0  0  0  0  0
    7.2771   -2.2252  -14.5256 O   0  0  0  0  0  0  0  0  0  0  0  0
    5.6600   -4.0641  -10.5827 C   0  0  1  0  0  0  0  0  0  0  0  0
    4.3329   -4.1362  -11.1538 O   0  0  0  0  0  0  0  0  0  0  0  0
    3.4636   -2.9890  -11.0475 C   0  0  2  0  0  0  0  0  0  0  0  0
    3.1154   -2.6846   -9.6729 O   0  0  0  0  0  0  0  0  0  0  0  0
    2.2190   -1.5562   -9.5088 C   0  0  2  0  0  0  0  0  0  0  0  0
    2.0001   -1.2927   -7.9948 C   0  0  0  0  0  0  0  0  0  0  0  0
    3.2391   -1.0546   -7.3362 O   0  0  0  0  0  0  0  0  0  0  0  0
    0.8745   -1.8132  -10.2587 C   0  0  1  0  0  0  0  0  0  0  0  0
    0.0369   -0.6586  -10.2173 O   0  0  0  0  0  0  0  0  0  0  0  0
    1.1325   -2.2011  -11.7393 C   0  0  2  0  0  0  0  0  0  0  0  0
   -0.0874   -2.6042  -12.3613 O   0  0  0  0  0  0  0  0  0  0  0  0
    2.1809   -3.3359  -11.8528 C   0  0  1  0  0  0  0  0  0  0  0  0
    2.4834   -3.5624  -13.2293 O   0  0  0  0  0  0  0  0  0  0  0  0
    1.0994   -6.1590   -0.6074 C   0  0  0  0  0  0  0  0  0  0  0  0
    0.2870   -5.2247   -0.8058 O   0  0  0  0  0  0  0  0  0  0  0  0
    1.7135   -6.1980    0.6222 O   0  0  0  0  0  0  0  0  0  0  0  0
    1.7890   -5.1144    1.5682 C   0  0  1  0  0  0  0  0  0  0  0  0
    0.5050   -4.4768    1.7546 O   0  0  0  0  0  0  0  0  0  0  0  0
    0.5650   -3.2576    2.5323 C   0  0  1  0  0  0  0  0  0  0  0  0
   -0.8389   -2.6071    2.4959 C   0  0  0  0  0  0  0  0  0  0  0  0
   -1.2411   -2.3898    1.1466 O   0  0  0  0  0  0  0  0  0  0  0  0
    1.0703   -3.5839    3.9719 C   0  0  2  0  0  0  0  0  0  0  0  0
    1.2231   -2.3919    4.7439 O   0  0  0  0  0  0  0  0  0  0  0  0
    2.4136   -4.3710    3.9218 C   0  0  1  0  0  0  0  0  0  0  0  0
    2.7838   -4.8113    5.2269 O   0  0  0  0  0  0  0  0  0  0  0  0
    2.3290   -5.5823    2.9463 C   0  0  2  0  0  0  0  0  0  0  0  0
    3.6040   -6.2084    2.8043 O   0  0  0  0  0  0  0  0  0  0  0  0
    3.5050   -5.2907   -1.1557 H   0  0  0  0  0  0  0  0  0  0  0  0
    3.3257   -4.2282   -2.5312 H   0  0  0  0  0  0  0  0  0  0  0  0
    4.8814   -4.9385   -2.1730 H   0  0  0  0  0  0  0  0  0  0  0  0
    5.2586   -7.3465   -2.3948 H   0  0  0  0  0  0  0  0  0  0  0  0
    4.0186   -8.4048   -3.1370 H   0  0  0  0  0  0  0  0  0  0  0  0
    3.9011   -7.2677   -0.3673 H   0  0  0  0  0  0  0  0  0  0  0  0
    4.2765   -8.9263   -0.7867 H   0  0  0  0  0  0  0  0  0  0  0  0
    1.9072   -8.6280   -0.1323 H   0  0  0  0  0  0  0  0  0  0  0  0
    2.1186   -9.1934   -1.8156 H   0  0  0  0  0  0  0  0  0  0  0  0
   -0.0009   -8.6471   -2.6633 H   0  0  0  0  0  0  0  0  0  0  0  0
   -0.7910   -7.1428   -2.2562 H   0  0  0  0  0  0  0  0  0  0  0  0
   -0.4585   -8.3204   -1.0089 H   0  0  0  0  0  0  0  0  0  0  0  0
    1.8230   -7.5341   -3.6469 H   0  0  0  0  0  0  0  0  0  0  0  0
    0.7668   -4.8285   -3.0056 H   0  0  0  0  0  0  0  0  0  0  0  0
    0.2252   -6.0685   -4.1944 H   0  0  0  0  0  0  0  0  0  0  0  0
    2.1678   -3.8843   -4.5254 H   0  0  0  0  0  0  0  0  0  0  0  0
    0.9688   -4.5624   -5.6420 H   0  0  0  0  0  0  0  0  0  0  0  0
    1.2429   -6.5522   -6.8015 H   0  0  0  0  0  0  0  0  0  0  0  0
    2.1683   -7.6933   -5.9183 H   0  0  0  0  0  0  0  0  0  0  0  0
    2.1163   -8.4349   -8.5561 H   0  0  0  0  0  0  0  0  0  0  0  0
    3.5743   -7.8386   -9.4008 H   0  0  0  0  0  0  0  0  0  0  0  0
    4.1883   -4.0805   -6.4248 H   0  0  0  0  0  0  0  0  0  0  0  0
    2.8110   -4.2539   -7.3942 H   0  0  0  0  0  0  0  0  0  0  0  0
    6.1373   -5.7667   -6.5618 H   0  0  0  0  0  0  0  0  0  0  0  0
    5.7588   -7.3939   -7.1965 H   0  0  0  0  0  0  0  0  0  0  0  0
    5.8375   -7.1008   -4.6519 H   0  0  0  0  0  0  0  0  0  0  0  0
    4.4688   -7.9528   -5.3767 H   0  0  0  0  0  0  0  0  0  0  0  0
    4.5288   -5.1434   -4.3261 H   0  0  0  0  0  0  0  0  0  0  0  0
    5.2315   -3.6688   -8.4906 H   0  0  0  0  0  0  0  0  0  0  0  0
    7.1373   -6.6877   -9.2079 H   0  0  0  0  0  0  0  0  0  0  0  0
    9.6067   -5.0869   -8.5401 H   0  0  0  0  0  0  0  0  0  0  0  0
    9.5411   -6.7994   -8.9391 H   0  0  0  0  0  0  0  0  0  0  0  0
    8.3393   -5.5700   -6.6780 H   0  0  0  0  0  0  0  0  0  0  0  0
    8.5350   -4.4927  -10.6914 H   0  0  0  0  0  0  0  0  0  0  0  0
    7.9850   -7.2052  -11.4137 H   0  0  0  0  0  0  0  0  0  0  0  0
    5.9702   -5.8523  -11.6079 H   0  0  0  0  0  0  0  0  0  0  0  0
    5.3042   -3.7999  -13.6200 H   0  0  0  0  0  0  0  0  0  0  0  0
    4.2429   -5.1775  -15.4064 H   0  0  0  0  0  0  0  0  0  0  0  0
    5.6815   -7.8124  -15.7227 H   0  0  0  0  0  0  0  0  0  0  0  0
    4.2477   -7.3213  -16.6006 H   0  0  0  0  0  0  0  0  0  0  0  0
    4.4492   -7.6218  -13.7754 H   0  0  0  0  0  0  0  0  0  0  0  0
    6.8640   -5.7368  -16.7379 H   0  0  0  0  0  0  0  0  0  0  0  0
    4.4505   -4.5952  -17.7299 H   0  0  0  0  0  0  0  0  0  0  0  0
    5.5154   -3.0782  -16.2597 H   0  0  0  0  0  0  0  0  0  0  0  0
    8.1005   -3.7151  -17.2857 H   0  0  0  0  0  0  0  0  0  0  0  0
    8.0206   -4.0909  -14.9384 H   0  0  0  0  0  0  0  0  0  0  0  0
    6.4198   -1.7743  -14.4753 H   0  0  0  0  0  0  0  0  0  0  0  0
    6.0477   -3.0673  -10.6150 H   0  0  0  0  0  0  0  0  0  0  0  0
    3.9607   -2.1218  -11.4293 H   0  0  0  0  0  0  0  0  0  0  0  0
    2.6548   -0.6800   -9.9416 H   0  0  0  0  0  0  0  0  0  0  0  0
    1.5282   -2.1465   -7.5553 H   0  0  0  0  0  0  0  0  0  0  0  0
    1.3823   -0.4260   -7.8845 H   0  0  0  0  0  0  0  0  0  0  0  0
    3.8094   -1.8338   -7.4287 H   0  0  0  0  0  0  0  0  0  0  0  0
    0.3817   -2.6226   -9.7618 H   0  0  0  0  0  0  0  0  0  0  0  0
    0.4795    0.0782  -10.6668 H   0  0  0  0  0  0  0  0  0  0  0  0
    1.5202   -1.3390  -12.2406 H   0  0  0  0  0  0  0  0  0  0  0  0
   -0.4391   -3.3857  -11.9070 H   0  0  0  0  0  0  0  0  0  0  0  0
    1.7751   -4.2327  -11.4334 H   0  0  0  0  0  0  0  0  0  0  0  0
    2.8520   -2.7531  -13.6167 H   0  0  0  0  0  0  0  0  0  0  0  0
    2.4744   -4.4060    1.1520 H   0  0  0  0  0  0  0  0  0  0  0  0
    1.2620   -2.5533    2.1285 H   0  0  0  0  0  0  0  0  0  0  0  0
   -0.8086   -1.6702    3.0118 H   0  0  0  0  0  0  0  0  0  0  0  0
   -1.5409   -3.2605    2.9705 H   0  0  0  0  0  0  0  0  0  0  0  0
   -0.6076   -1.7977    0.7117 H   0  0  0  0  0  0  0  0  0  0  0  0
    0.3333   -4.1986    4.4450 H   0  0  0  0  0  0  0  0  0  0  0  0
    1.8888   -1.8212    4.3292 H   0  0  0  0  0  0  0  0  0  0  0  0
    3.1663   -3.7053    3.5542 H   0  0  0  0  0  0  0  0  0  0  0  0
    2.1065   -5.4158    5.5684 H   0  0  0  0  0  0  0  0  0  0  0  0
    1.6527   -6.3047    3.3534 H   0  0  0  0  0  0  0  0  0  0  0  0
    4.2372   -5.5726    2.4359 H   0  0  0  0  0  0  0  0  0  0  0  0
  1 68  1  0  0  0  0
  1 69  1  0  0  0  0
  1 70  1  0  0  0  0
  2  1  1  1  0  0  0
  2  3  1  0  0  0  0
  2  8  1  0  0  0  0
  2 19  1  0  0  0  0
  3  4  1  0  0  0  0
  3 71  1  0  0  0  0
  3 72  1  0  0  0  0
  4  5  1  0  0  0  0
  4 73  1  0  0  0  0
  4 74  1  0  0  0  0
  5  6  1  0  0  0  0
  5 75  1  0  0  0  0
  5 76  1  0  0  0  0
  6  7  1  0  0  0  0
  6  8  1  0  0  0  0
  6 54  1  1  0  0  0
  7 77  1  0  0  0  0
  7 78  1  0  0  0  0
  7 79  1  0  0  0  0
  8  9  1  0  0  0  0
  8 80  1  6  0  0  0
  9 10  1  0  0  0  0
  9 81  1  0  0  0  0
  9 82  1  0  0  0  0
 10 83  1  0  0  0  0
 10 84  1  0  0  0  0
 11 10  1  1  0  0  0
 11 12  1  0  0  0  0
 11 16  1  0  0  0  0
 11 19  1  0  0  0  0
 12 13  1  0  0  0  0
 12 85  1  0  0  0  0
 12 86  1  0  0  0  0
 13 14  2  0  0  0  0
 13 15  1  0  0  0  0
 14 87  1  0  0  0  0
 14 88  1  0  0  0  0
 15 16  1  0  0  0  0
 15 17  1  0  0  0  0
 15 20  1  6  0  0  0
 16 89  1  0  0  0  0
 16 90  1  0  0  0  0
 17 18  1  0  0  0  0
 17 91  1  0  0  0  0
 17 92  1  0  0  0  0
 18 19  1  0  0  0  0
 18 93  1  0  0  0  0
 18 94  1  0  0  0  0
 19 95  1  1  0  0  0
 20 21  1  0  0  0  0
 21 22  1  0  0  0  0
 21 41  1  0  0  0  0
 21 96  1  1  0  0  0
 22 23  1  0  0  0  0
 23 24  1  0  0  0  0
 23 26  1  0  0  0  0
 23 97  1  1  0  0  0
 24 25  1  0  0  0  0
 24 98  1  0  0  0  0
 24 99  1  0  0  0  0
 25100  1  0  0  0  0
 26 27  1  0  0  0  0
 26 28  1  0  0  0  0
 26101  1  6  0  0  0
 27102  1  0  0  0  0
 28 29  1  0  0  0  0
 28 41  1  0  0  0  0
 28103  1  6  0  0  0
 29 30  1  0  0  0  0
 30 31  1  0  0  0  0
 30 39  1  0  0  0  0
 30104  1  1  0  0  0
 31 32  1  0  0  0  0
 32 33  1  0  0  0  0
 32 35  1  0  0  0  0
 32105  1  1  0  0  0
 33 34  1  0  0  0  0
 33106  1  0  0  0  0
 33107  1  0  0  0  0
 34108  1  0  0  0  0
 35 36  1  0  0  0  0
 35 37  1  0  0  0  0
 35109  1  6  0  0  0
 36110  1  0  0  0  0
 37 38  1  0  0  0  0
 37 39  1  0  0  0  0
 37111  1  1  0  0  0
 38112  1  0  0  0  0
 39 40  1  0  0  0  0
 39113  1  6  0  0  0
 40114  1  0  0  0  0
 41 42  1  0  0  0  0
 41115  1  6  0  0  0
 42 43  1  0  0  0  0
 43 44  1  0  0  0  0
 43 52  1  0  0  0  0
 43116  1  6  0  0  0
 44 45  1  0  0  0  0
 45 46  1  0  0  0  0
 45 48  1  0  0  0  0
 45117  1  6  0  0  0
 46 47  1  0  0  0  0
 46118  1  0  0  0  0
 46119  1  0  0  0  0
 47120  1  0  0  0  0
 48 49  1  0  0  0  0
 48 50  1  0  0  0  0
 48121  1  1  0  0  0
 49122  1  0  0  0  0
 50 51  1  0  0  0  0
 50 52  1  0  0  0  0
 50123  1  6  0  0  0
 51124  1  0  0  0  0
 52 53  1  0  0  0  0
 52125  1  1  0  0  0
 53126  1  0  0  0  0
 54 55  2  0  0  0  0
 54 56  1  0  0  0  0
 56 57  1  0  0  0  0
 57 58  1  0  0  0  0
 57 66  1  0  0  0  0
 57127  1  6  0  0  0
 58 59  1  0  0  0  0
 59 60  1  0  0  0  0
 59 62  1  0  0  0  0
 59128  1  6  0  0  0
 60 61  1  0  0  0  0
 60129  1  0  0  0  0
 60130  1  0  0  0  0
 61131  1  0  0  0  0
 62 63  1  0  0  0  0
 62 64  1  0  0  0  0
 62132  1  1  0  0  0
 63133  1  0  0  0  0
 64 65  1  0  0  0  0
 64 66  1  0  0  0  0
 64134  1  6  0  0  0
 65135  1  0  0  0  0
 66 67  1  0  0  0  0
 66136  1  1  0  0  0
 67137  1  0  0  0  0
M  END
$$$$
Row13
 OpenBabel08252322322D

137144  0  0  1  0  0  0  0  0999 V2000
    1.8257    0.7777    0.0000 C   0  0  0  0  0  0  0  0  0  0  0  0
    2.0661   -0.0115    0.0000 C   0  0  1  0  0  0  0  0  0  0  0  0
    2.6242    0.5960    0.0000 C   0  0  0  0  0  0  0  0  0  0  0  0
    3.4294    0.4164    0.0000 C   0  0  0  0  0  0  0  0  0  0  0  0
    3.6765   -0.3707    0.0000 C   0  0  0  0  0  0  0  0  0  0  0  0
    3.1184   -0.9782    0.0000 C   0  0  2  0  0  0  0  0  0  0  0  0
    2.8017   -1.7400    0.0000 C   0  0  0  0  0  0  0  0  0  0  0  0
    2.3132   -0.7987    0.0000 C   0  0  3  0  0  0  0  0  0  0  0  0
    1.7596   -1.4229    0.0000 C   0  0  0  0  0  0  0  0  0  0  0  0
    0.9506   -1.2543    0.0000 C   0  0  0  0  0  0  0  0  0  0  0  0
    0.6469   -0.4671    0.0000 C   0  0  1  0  0  0  0  0  0  0  0  0
   -0.1637   -0.8483    0.0000 C   0  0  0  0  0  0  0  0  0  0  0  0
   -0.7854   -0.2403    0.0000 C   0  0  0  0  0  0  0  0  0  0  0  0
   -1.5987   -0.3788    0.0000 C   0  0  0  0  0  0  0  0  0  0  0  0
   -0.4028    0.5335    0.0000 C   0  0  2  0  0  0  0  0  0  0  0  0
    0.1726    0.0666    0.0000 C   0  0  0  0  0  0  0  0  0  0  0  0
    0.1586    1.1914    0.0000 C   0  0  0  0  0  0  0  0  0  0  0  0
    1.0038    1.0309    0.0000 C   0  0  0  0  0  0  0  0  0  0  0  0
    1.2474    0.1857    0.0000 C   0  0  3  0  0  0  0  0  0  0  0  0
   -1.0916    0.9875    0.0000 O   0  0  0  0  0  0  0  0  0  0  0  0
   -1.0428    1.8111    0.0000 C   0  0  2  0  0  0  0  0  0  0  0  0
   -0.3051    2.1806    0.0000 O   0  0  0  0  0  0  0  0  0  0  0  0
   -0.2563    3.0041    0.0000 C   0  0  2  0  0  0  0  0  0  0  0  0
    0.4813    3.3736    0.0000 C   0  0  0  0  0  0  0  0  0  0  0  0
    0.5301    4.1972    0.0000 O   0  0  0  0  0  0  0  0  0  0  0  0
   -0.9451    3.4582    0.0000 C   0  0  1  0  0  0  0  0  0  0  0  0
   -0.8963    4.2817    0.0000 O   0  0  0  0  0  0  0  0  0  0  0  0
   -1.6828    3.0887    0.0000 C   0  0  2  0  0  0  0  0  0  0  0  0
   -2.3716    3.5427    0.0000 O   0  0  0  0  0  0  0  0  0  0  0  0
   -1.7316    2.2651    0.0000 C   0  0  2  0  0  0  0  0  0  0  0  0
   -2.4692    1.8956    0.0000 O   0  0  0  0  0  0  0  0  0  0  0  0
   -3.1580    2.3497    0.0000 C   0  0  2  0  0  0  0  0  0  0  0  0
   -3.1092    3.1732    0.0000 O   0  0  0  0  0  0  0  0  0  0  0  0
   -3.7980    3.6273    0.0000 C   0  0  2  0  0  0  0  0  0  0  0  0
   -3.7492    4.4508    0.0000 C   0  0  0  0  0  0  0  0  0  0  0  0
   -3.0116    4.8203    0.0000 O   0  0  0  0  0  0  0  0  0  0  0  0
   -4.5356    3.2578    0.0000 C   0  0  1  0  0  0  0  0  0  0  0  0
   -5.2245    3.7118    0.0000 O   0  0  0  0  0  0  0  0  0  0  0  0
   -5.1756    4.5354    0.0000 C   0  0  2  0  0  0  0  0  0  0  0  0
   -4.4380    4.9049    0.0000 O   0  0  0  0  0  0  0  0  0  0  0  0
   -4.3892    5.7284    0.0000 C   0  0  2  0  0  0  0  0  0  0  0  0
   -3.6516    6.0979    0.0000 C   0  0  0  0  0  0  0  0  0  0  0  0
   -2.9628    5.6439    0.0000 O   0  0  0  0  0  0  0  0  0  0  0  0
   -5.0780    6.1825    0.0000 C   0  0  2  0  0  0  0  0  0  0  0  0
   -5.0292    7.0060    0.0000 O   0  0  0  0  0  0  0  0  0  0  0  0
   -5.8156    5.8130    0.0000 C   0  0  2  0  0  0  0  0  0  0  0  0
   -6.5045    6.2670    0.0000 O   0  0  0  0  0  0  0  0  0  0  0  0
   -5.8645    4.9894    0.0000 C   0  0  1  0  0  0  0  0  0  0  0  0
   -6.6021    4.6199    0.0000 O   0  0  0  0  0  0  0  0  0  0  0  0
   -4.5844    2.4342    0.0000 C   0  0  2  0  0  0  0  0  0  0  0  0
   -5.3221    2.0647    0.0000 O   0  0  0  0  0  0  0  0  0  0  0  0
   -3.8956    1.9802    0.0000 C   0  0  1  0  0  0  0  0  0  0  0  0
   -3.9444    1.1566    0.0000 O   0  0  0  0  0  0  0  0  0  0  0  0
    3.8136   -1.4224    0.0000 C   0  0  0  0  0  0  0  0  0  0  0  0
    4.5459   -1.0424    0.0000 O   0  0  0  0  0  0  0  0  0  0  0  0
    3.7766   -2.2466    0.0000 O   0  0  0  0  0  0  0  0  0  0  0  0
    4.4718   -2.6907    0.0000 C   0  0  2  0  0  0  0  0  0  0  0  0
    5.2041   -2.3107    0.0000 O   0  0  0  0  0  0  0  0  0  0  0  0
    5.8993   -2.7549    0.0000 C   0  0  2  0  0  0  0  0  0  0  0  0
    6.6316   -2.3748    0.0000 C   0  0  0  0  0  0  0  0  0  0  0  0
    7.3268   -2.8190    0.0000 O   0  0  0  0  0  0  0  0  0  0  0  0
    5.8623   -3.5790    0.0000 C   0  0  1  0  0  0  0  0  0  0  0  0
    6.5575   -4.0232    0.0000 O   0  0  0  0  0  0  0  0  0  0  0  0
    5.1300   -3.9590    0.0000 C   0  0  2  0  0  0  0  0  0  0  0  0
    5.0930   -4.7832    0.0000 O   0  0  0  0  0  0  0  0  0  0  0  0
    4.4348   -3.5149    0.0000 C   0  0  1  0  0  0  0  0  0  0  0  0
    3.7025   -3.8949    0.0000 O   0  0  0  0  0  0  0  0  0  0  0  0
    2.5562    1.5595    0.0000 H   0  0  0  0  0  0  0  0  0  0  0  0
    0.7834    1.0195    0.0000 H   0  0  0  0  0  0  0  0  0  0  0  0
    1.5139    1.8013    0.0000 H   0  0  0  0  0  0  0  0  0  0  0  0
    2.3038    1.6169    0.0000 H   0  0  0  0  0  0  0  0  0  0  0  0
    3.3481    1.3840    0.0000 H   0  0  0  0  0  0  0  0  0  0  0  0
    4.1533    1.2044    0.0000 H   0  0  0  0  0  0  0  0  0  0  0  0
    4.4737    0.1835    0.0000 H   0  0  0  0  0  0  0  0  0  0  0  0
    4.7208   -0.6036    0.0000 H   0  0  0  0  0  0  0  0  0  0  0  0
    3.9970   -1.3916    0.0000 H   0  0  0  0  0  0  0  0  0  0  0  0
    1.7407   -1.8783    0.0000 H   0  0  0  0  0  0  0  0  0  0  0  0
    3.4520   -2.5897    0.0000 H   0  0  0  0  0  0  0  0  0  0  0  0
    2.3910   -2.7280    0.0000 H   0  0  0  0  0  0  0  0  0  0  0  0
    3.0370   -0.0107    0.0000 H   0  0  0  0  0  0  0  0  0  0  0  0
    2.0961   -2.4386    0.0000 H   0  0  0  0  0  0  0  0  0  0  0  0
    1.0475   -2.2215    0.0000 H   0  0  0  0  0  0  0  0  0  0  0  0
    0.2580   -2.0699    0.0000 H   0  0  0  0  0  0  0  0  0  0  0  0
   -0.1044   -1.0755    0.0000 H   0  0  0  0  0  0  0  0  0  0  0  0
   -0.3419   -1.9034    0.0000 H   0  0  0  0  0  0  0  0  0  0  0  0
   -1.1812   -1.1794    0.0000 H   0  0  0  0  0  0  0  0  0  0  0  0
   -2.2574    0.4156    0.0000 H   0  0  0  0  0  0  0  0  0  0  0  0
   -1.9573   -1.3465    0.0000 H   0  0  0  0  0  0  0  0  0  0  0  0
    0.9120    0.8400    0.0000 H   0  0  0  0  0  0  0  0  0  0  0  0
    0.1052    1.1345    0.0000 H   0  0  0  0  0  0  0  0  0  0  0  0
   -0.1966    2.2007    0.0000 H   0  0  0  0  0  0  0  0  0  0  0  0
    0.8561    2.0028    0.0000 H   0  0  0  0  0  0  0  0  0  0  0  0
    1.7244    1.8218    0.0000 H   0  0  0  0  0  0  0  0  0  0  0  0
    2.0458    0.7878    0.0000 H   0  0  0  0  0  0  0  0  0  0  0  0
    1.5589   -0.8380    0.0000 H   0  0  0  0  0  0  0  0  0  0  0  0
   -0.1494    1.2222    0.0000 H   0  0  0  0  0  0  0  0  0  0  0  0
    0.6371    2.4152    0.0000 H   0  0  0  0  0  0  0  0  0  0  0  0
    1.3747    2.7847    0.0000 H   0  0  0  0  0  0  0  0  0  0  0  0
    1.4380    3.8529    0.0000 H   0  0  0  0  0  0  0  0  0  0  0  0
    1.3974    4.6317    0.0000 H   0  0  0  0  0  0  0  0  0  0  0  0
    0.0116    3.9374    0.0000 H   0  0  0  0  0  0  0  0  0  0  0  0
   -0.0290    4.7162    0.0000 H   0  0  0  0  0  0  0  0  0  0  0  0
   -1.6195    4.1568    0.0000 H   0  0  0  0  0  0  0  0  0  0  0  0
   -2.3142    4.5110    0.0000 H   0  0  0  0  0  0  0  0  0  0  0  0
   -1.7949    1.1970    0.0000 H   0  0  0  0  0  0  0  0  0  0  0  0
   -2.2013    2.8289    0.0000 H   0  0  0  0  0  0  0  0  0  0  0  0
   -2.8413    4.1065    0.0000 H   0  0  0  0  0  0  0  0  0  0  0  0
   -4.6426    5.0397    0.0000 H   0  0  0  0  0  0  0  0  0  0  0  0
   -3.6859    5.5189    0.0000 H   0  0  0  0  0  0  0  0  0  0  0  0
   -2.2017    4.2865    0.0000 H   0  0  0  0  0  0  0  0  0  0  0  0
   -4.4724    4.3259    0.0000 H   0  0  0  0  0  0  0  0  0  0  0  0
   -4.2823    3.9465    0.0000 H   0  0  0  0  0  0  0  0  0  0  0  0
   -3.4958    5.1395    0.0000 H   0  0  0  0  0  0  0  0  0  0  0  0
   -3.5883    7.1660    0.0000 H   0  0  0  0  0  0  0  0  0  0  0  0
   -2.6949    6.5772    0.0000 H   0  0  0  0  0  0  0  0  0  0  0  0
   -3.0202    4.6756    0.0000 H   0  0  0  0  0  0  0  0  0  0  0  0
   -4.1213    6.6617    0.0000 H   0  0  0  0  0  0  0  0  0  0  0  0
   -4.1619    7.4405    0.0000 H   0  0  0  0  0  0  0  0  0  0  0  0
   -5.7524    6.8811    0.0000 H   0  0  0  0  0  0  0  0  0  0  0  0
   -6.4472    7.2353    0.0000 H   0  0  0  0  0  0  0  0  0  0  0  0
   -5.9277    3.9213    0.0000 H   0  0  0  0  0  0  0  0  0  0  0  0
   -7.4120    5.1537    0.0000 H   0  0  0  0  0  0  0  0  0  0  0  0
   -5.4778    3.0231    0.0000 H   0  0  0  0  0  0  0  0  0  0  0  0
   -6.1320    2.5986    0.0000 H   0  0  0  0  0  0  0  0  0  0  0  0
   -3.0022    1.3913    0.0000 H   0  0  0  0  0  0  0  0  0  0  0  0
   -4.8117    0.7221    0.0000 H   0  0  0  0  0  0  0  0  0  0  0  0
    4.5198   -1.6218    0.0000 H   0  0  0  0  0  0  0  0  0  0  0  0
    5.9473   -1.6860    0.0000 H   0  0  0  0  0  0  0  0  0  0  0  0
    6.6796   -1.3059    0.0000 H   0  0  0  0  0  0  0  0  0  0  0  0
    7.5813   -1.8820    0.0000 H   0  0  0  0  0  0  0  0  0  0  0  0
    7.2832   -3.7880    0.0000 H   0  0  0  0  0  0  0  0  0  0  0  0
    6.8120   -3.0861    0.0000 H   0  0  0  0  0  0  0  0  0  0  0  0
    6.5139   -4.9922    0.0000 H   0  0  0  0  0  0  0  0  0  0  0  0
    6.0317   -4.5351    0.0000 H   0  0  0  0  0  0  0  0  0  0  0  0
    4.2320   -5.2300    0.0000 H   0  0  0  0  0  0  0  0  0  0  0  0
    3.5331   -2.9388    0.0000 H   0  0  0  0  0  0  0  0  0  0  0  0
    2.8851   -3.3727    0.0000 H   0  0  0  0  0  0  0  0  0  0  0  0
  1 68  1  0  0  0  0
  1 69  1  0  0  0  0
  1 70  1  0  0  0  0
  2  1  1  1  0  0  0
  2  3  1  0  0  0  0
  2  8  1  0  0  0  0
  2 19  1  0  0  0  0
  3  4  1  0  0  0  0
  3 71  1  0  0  0  0
  3 72  1  0  0  0  0
  4  5  1  0  0  0  0
  4 73  1  0  0  0  0
  4 74  1  0  0  0  0
  5 75  1  0  0  0  0
  5 76  1  0  0  0  0
  6  5  1  0  0  0  0
  6  7  1  0  0  0  0
  6  8  1  0  0  0  0
  6 54  1  1  0  0  0
  7 77  1  0  0  0  0
  7 78  1  0  0  0  0
  7 79  1  0  0  0  0
  8  9  1  0  0  0  0
  8 80  1  0  0  0  0
  9 10  1  0  0  0  0
  9 81  1  0  0  0  0
  9 82  1  0  0  0  0
 10 83  1  0  0  0  0
 10 84  1  0  0  0  0
 11 10  1  1  0  0  0
 11 12  1  0  0  0  0
 11 16  1  0  0  0  0
 11 19  1  0  0  0  0
 12 13  1  0  0  0  0
 12 85  1  0  0  0  0
 12 86  1  0  0  0  0
 13 14  2  0  0  0  0
 14 87  1  0  0  0  0
 14 88  1  0  0  0  0
 15 13  1  0  0  0  0
 15 16  1  0  0  0  0
 15 17  1  0  0  0  0
 15 20  1  6  0  0  0
 16 89  1  0  0  0  0
 16 90  1  0  0  0  0
 17 18  1  0  0  0  0
 17 91  1  0  0  0  0
 17 92  1  0  0  0  0
 18 19  1  0  0  0  0
 18 93  1  0  0  0  0
 18 94  1  0  0  0  0
 19 95  1  0  0  0  0
 21 20  1  0  0  0  0
 21 22  1  0  0  0  0
 21 96  1  6  0  0  0
 23 22  1  0  0  0  0
 23 24  1  0  0  0  0
 23 97  1  6  0  0  0
 24 25  1  0  0  0  0
 24 98  1  0  0  0  0
 24 99  1  0  0  0  0
 25100  1  0  0  0  0
 26 23  1  0  0  0  0
 26 27  1  0  0  0  0
 26 28  1  0  0  0  0
 26101  1  1  0  0  0
 27102  1  0  0  0  0
 28 29  1  0  0  0  0
 28 30  1  0  0  0  0
 28103  1  6  0  0  0
 29104  1  0  0  0  0
 30 21  1  0  0  0  0
 30 31  1  0  0  0  0
 30105  1  6  0  0  0
 32 31  1  0  0  0  0
 32 33  1  0  0  0  0
 32106  1  6  0  0  0
 34 33  1  0  0  0  0
 34 35  1  0  0  0  0
 34107  1  6  0  0  0
 35 36  1  0  0  0  0
 35108  1  0  0  0  0
 35109  1  0  0  0  0
 36110  1  0  0  0  0
 37 34  1  0  0  0  0
 37 38  1  0  0  0  0
 37 50  1  0  0  0  0
 37111  1  1  0  0  0
 39 38  1  0  0  0  0
 39 40  1  0  0  0  0
 39112  1  6  0  0  0
 41 40  1  0  0  0  0
 41 42  1  0  0  0  0
 41113  1  6  0  0  0
 42 43  1  0  0  0  0
 42114  1  0  0  0  0
 42115  1  0  0  0  0
 43116  1  0  0  0  0
 44 41  1  0  0  0  0
 44 45  1  0  0  0  0
 44 46  1  0  0  0  0
 44117  1  6  0  0  0
 45118  1  0  0  0  0
 46 47  1  0  0  0  0
 46 48  1  0  0  0  0
 46119  1  6  0  0  0
 47120  1  0  0  0  0
 48 39  1  0  0  0  0
 48 49  1  0  0  0  0
 48121  1  1  0  0  0
 49122  1  0  0  0  0
 50 51  1  0  0  0  0
 50 52  1  0  0  0  0
 50123  1  6  0  0  0
 51124  1  0  0  0  0
 52 32  1  0  0  0  0
 52 53  1  0  0  0  0
 52125  1  1  0  0  0
 53126  1  0  0  0  0
 54 55  2  0  0  0  0
 54 56  1  0  0  0  0
 57 56  1  0  0  0  0
 57 58  1  0  0  0  0
 57127  1  1  0  0  0
 59 58  1  0  0  0  0
 59 60  1  0  0  0  0
 59128  1  1  0  0  0
 60 61  1  0  0  0  0
 60129  1  0  0  0  0
 60130  1  0  0  0  0
 61131  1  0  0  0  0
 62 59  1  0  0  0  0
 62 63  1  0  0  0  0
 62 64  1  0  0  0  0
 62132  1  6  0  0  0
 63133  1  0  0  0  0
 64 65  1  0  0  0  0
 64 66  1  0  0  0  0
 64134  1  1  0  0  0
 65135  1  0  0  0  0
 66 57  1  0  0  0  0
 66 67  1  0  0  0  0
 66136  1  6  0  0  0
 67137  1  0  0  0  0
M  END
$$$$
Row14
 OpenBabel08252322322D

116122  0  0  1  0  0  0  0  0999 V2000
    1.8257    0.7777    0.0000 C   0  0  0  0  0  0  0  0  0  0  0  0
    2.0661   -0.0115    0.0000 C   0  0  1  0  0  0  0  0  0  0  0  0
    2.6242    0.5960    0.0000 C   0  0  0  0  0  0  0  0  0  0  0  0
    3.4294    0.4164    0.0000 C   0  0  0  0  0  0  0  0  0  0  0  0
    3.6765   -0.3707    0.0000 C   0  0  0  0  0  0  0  0  0  0  0  0
    3.1184   -0.9782    0.0000 C   0  0  2  0  0  0  0  0  0  0  0  0
    3.8136   -1.4224    0.0000 C   0  0  0  0  0  0  0  0  0  0  0  0
    2.3132   -0.7987    0.0000 C   0  0  3  0  0  0  0  0  0  0  0  0
    1.7596   -1.4229    0.0000 C   0  0  0  0  0  0  0  0  0  0  0  0
    0.9506   -1.2543    0.0000 C   0  0  0  0  0  0  0  0  0  0  0  0
    0.6469   -0.4671    0.0000 C   0  0  1  0  0  0  0  0  0  0  0  0
   -0.1637   -0.8483    0.0000 C   0  0  0  0  0  0  0  0  0  0  0  0
   -0.7854   -0.2403    0.0000 C   0  0  0  0  0  0  0  0  0  0  0  0
   -1.5987   -0.3788    0.0000 C   0  0  0  0  0  0  0  0  0  0  0  0
   -0.4028    0.5335    0.0000 C   0  0  2  0  0  0  0  0  0  0  0  0
    0.1726    0.0666    0.0000 C   0  0  0  0  0  0  0  0  0  0  0  0
    0.1586    1.1914    0.0000 C   0  0  0  0  0  0  0  0  0  0  0  0
    1.0038    1.0309    0.0000 C   0  0  0  0  0  0  0  0  0  0  0  0
    1.2474    0.1857    0.0000 C   0  0  3  0  0  0  0  0  0  0  0  0
   -1.0916    0.9875    0.0000 O   0  0  0  0  0  0  0  0  0  0  0  0
   -1.0428    1.8111    0.0000 C   0  0  2  0  0  0  0  0  0  0  0  0
   -0.3051    2.1806    0.0000 O   0  0  0  0  0  0  0  0  0  0  0  0
   -0.2563    3.0041    0.0000 C   0  0  2  0  0  0  0  0  0  0  0  0
    0.4813    3.3736    0.0000 C   0  0  0  0  0  0  0  0  0  0  0  0
    1.1701    2.9196    0.0000 O   0  0  0  0  0  0  0  0  0  0  0  0
   -0.9451    3.4582    0.0000 C   0  0  1  0  0  0  0  0  0  0  0  0
   -0.8963    4.2817    0.0000 O   0  0  0  0  0  0  0  0  0  0  0  0
   -1.6828    3.0887    0.0000 C   0  0  2  0  0  0  0  0  0  0  0  0
   -2.3716    3.5427    0.0000 O   0  0  0  0  0  0  0  0  0  0  0  0
   -1.7316    2.2651    0.0000 C   0  0  2  0  0  0  0  0  0  0  0  0
   -2.4692    1.8956    0.0000 O   0  0  0  0  0  0  0  0  0  0  0  0
   -3.1580    2.3497    0.0000 C   0  0  2  0  0  0  0  0  0  0  0  0
   -3.1092    3.1732    0.0000 O   0  0  0  0  0  0  0  0  0  0  0  0
   -3.7980    3.6273    0.0000 C   0  0  2  0  0  0  0  0  0  0  0  0
   -3.7492    4.4508    0.0000 C   0  0  0  0  0  0  0  0  0  0  0  0
   -3.0116    4.8203    0.0000 O   0  0  0  0  0  0  0  0  0  0  0  0
   -4.5356    3.2578    0.0000 C   0  0  1  0  0  0  0  0  0  0  0  0
   -5.2245    3.7118    0.0000 O   0  0  0  0  0  0  0  0  0  0  0  0
   -4.5844    2.4342    0.0000 C   0  0  2  0  0  0  0  0  0  0  0  0
   -5.3221    2.0647    0.0000 O   0  0  0  0  0  0  0  0  0  0  0  0
   -3.8956    1.9802    0.0000 C   0  0  1  0  0  0  0  0  0  0  0  0
   -3.9444    1.1566    0.0000 O   0  0  0  0  0  0  0  0  0  0  0  0
    2.8017   -1.7400    0.0000 C   0  0  0  0  0  0  0  0  0  0  0  0
    1.9836   -1.8467    0.0000 O   0  0  0  0  0  0  0  0  0  0  0  0
    3.3031   -2.3952    0.0000 O   0  0  0  0  0  0  0  0  0  0  0  0
    2.9864   -3.1570    0.0000 C   0  0  3  0  0  0  0  0  0  0  0  0
    3.4878   -3.8122    0.0000 O   0  0  0  0  0  0  0  0  0  0  0  0
    3.1711   -4.5740    0.0000 C   0  0  2  0  0  0  0  0  0  0  0  0
    3.6725   -5.2291    0.0000 C   0  0  0  0  0  0  0  0  0  0  0  0
    4.4906   -5.1225    0.0000 O   0  0  0  0  0  0  0  0  0  0  0  0
    2.3531   -4.6806    0.0000 C   0  0  1  0  0  0  0  0  0  0  0  0
    2.0364   -5.4424    0.0000 O   0  0  0  0  0  0  0  0  0  0  0  0
    1.8517   -4.0254    0.0000 C   0  0  2  0  0  0  0  0  0  0  0  0
    1.0336   -4.1321    0.0000 O   0  0  0  0  0  0  0  0  0  0  0  0
    2.1683   -3.2636    0.0000 C   0  0  1  0  0  0  0  0  0  0  0  0
    1.6669   -2.6085    0.0000 O   0  0  0  0  0  0  0  0  0  0  0  0
    2.5562    1.5595    0.0000 H   0  0  0  0  0  0  0  0  0  0  0  0
    0.7834    1.0195    0.0000 H   0  0  0  0  0  0  0  0  0  0  0  0
    1.5139    1.8013    0.0000 H   0  0  0  0  0  0  0  0  0  0  0  0
    2.3038    1.6169    0.0000 H   0  0  0  0  0  0  0  0  0  0  0  0
    3.3481    1.3840    0.0000 H   0  0  0  0  0  0  0  0  0  0  0  0
    4.1533    1.2044    0.0000 H   0  0  0  0  0  0  0  0  0  0  0  0
    4.4737    0.1835    0.0000 H   0  0  0  0  0  0  0  0  0  0  0  0
    4.7208   -0.6036    0.0000 H   0  0  0  0  0  0  0  0  0  0  0  0
    3.9970   -1.3916    0.0000 H   0  0  0  0  0  0  0  0  0  0  0  0
    3.7655   -2.4913    0.0000 H   0  0  0  0  0  0  0  0  0  0  0  0
    4.7634   -0.9296    0.0000 H   0  0  0  0  0  0  0  0  0  0  0  0
    4.7153   -1.9985    0.0000 H   0  0  0  0  0  0  0  0  0  0  0  0
    3.0370   -0.0107    0.0000 H   0  0  0  0  0  0  0  0  0  0  0  0
    2.0961   -2.4386    0.0000 H   0  0  0  0  0  0  0  0  0  0  0  0
    1.0475   -2.2215    0.0000 H   0  0  0  0  0  0  0  0  0  0  0  0
    0.2580   -2.0699    0.0000 H   0  0  0  0  0  0  0  0  0  0  0  0
   -0.1044   -1.0755    0.0000 H   0  0  0  0  0  0  0  0  0  0  0  0
   -0.3419   -1.9034    0.0000 H   0  0  0  0  0  0  0  0  0  0  0  0
   -1.1812   -1.1794    0.0000 H   0  0  0  0  0  0  0  0  0  0  0  0
   -2.2574    0.4156    0.0000 H   0  0  0  0  0  0  0  0  0  0  0  0
   -1.9573   -1.3465    0.0000 H   0  0  0  0  0  0  0  0  0  0  0  0
    0.9120    0.8400    0.0000 H   0  0  0  0  0  0  0  0  0  0  0  0
    0.1052    1.1345    0.0000 H   0  0  0  0  0  0  0  0  0  0  0  0
   -0.1966    2.2007    0.0000 H   0  0  0  0  0  0  0  0  0  0  0  0
    0.8561    2.0028    0.0000 H   0  0  0  0  0  0  0  0  0  0  0  0
    1.7244    1.8218    0.0000 H   0  0  0  0  0  0  0  0  0  0  0  0
    2.0458    0.7878    0.0000 H   0  0  0  0  0  0  0  0  0  0  0  0
    1.5589   -0.8380    0.0000 H   0  0  0  0  0  0  0  0  0  0  0  0
   -0.1494    1.2222    0.0000 H   0  0  0  0  0  0  0  0  0  0  0  0
    0.6371    2.4152    0.0000 H   0  0  0  0  0  0  0  0  0  0  0  0
    0.5446    4.4417    0.0000 H   0  0  0  0  0  0  0  0  0  0  0  0
    1.4380    3.8529    0.0000 H   0  0  0  0  0  0  0  0  0  0  0  0
    1.1127    1.9513    0.0000 H   0  0  0  0  0  0  0  0  0  0  0  0
    0.0116    3.9374    0.0000 H   0  0  0  0  0  0  0  0  0  0  0  0
   -0.0290    4.7162    0.0000 H   0  0  0  0  0  0  0  0  0  0  0  0
   -1.6195    4.1568    0.0000 H   0  0  0  0  0  0  0  0  0  0  0  0
   -2.3142    4.5110    0.0000 H   0  0  0  0  0  0  0  0  0  0  0  0
   -1.7949    1.1970    0.0000 H   0  0  0  0  0  0  0  0  0  0  0  0
   -2.2013    2.8289    0.0000 H   0  0  0  0  0  0  0  0  0  0  0  0
   -2.8413    4.1065    0.0000 H   0  0  0  0  0  0  0  0  0  0  0  0
   -4.6426    5.0397    0.0000 H   0  0  0  0  0  0  0  0  0  0  0  0
   -3.6859    5.5189    0.0000 H   0  0  0  0  0  0  0  0  0  0  0  0
   -2.2017    4.2865    0.0000 H   0  0  0  0  0  0  0  0  0  0  0  0
   -4.4724    4.3259    0.0000 H   0  0  0  0  0  0  0  0  0  0  0  0
   -5.1672    4.6801    0.0000 H   0  0  0  0  0  0  0  0  0  0  0  0
   -5.4778    3.0231    0.0000 H   0  0  0  0  0  0  0  0  0  0  0  0
   -6.1320    2.5986    0.0000 H   0  0  0  0  0  0  0  0  0  0  0  0
   -3.0022    1.3913    0.0000 H   0  0  0  0  0  0  0  0  0  0  0  0
   -4.8117    0.7221    0.0000 H   0  0  0  0  0  0  0  0  0  0  0  0
    4.0474   -3.0187    0.0000 H   0  0  0  0  0  0  0  0  0  0  0  0
    4.2321   -4.4357    0.0000 H   0  0  0  0  0  0  0  0  0  0  0  0
    3.2618   -6.2171    0.0000 H   0  0  0  0  0  0  0  0  0  0  0  0
    4.3228   -6.0788    0.0000 H   0  0  0  0  0  0  0  0  0  0  0  0
    5.0801   -5.8928    0.0000 H   0  0  0  0  0  0  0  0  0  0  0  0
    3.0034   -5.5303    0.0000 H   0  0  0  0  0  0  0  0  0  0  0  0
    1.0745   -5.5678    0.0000 H   0  0  0  0  0  0  0  0  0  0  0  0
    1.4410   -5.0134    0.0000 H   0  0  0  0  0  0  0  0  0  0  0  0
    0.4440   -3.3618    0.0000 H   0  0  0  0  0  0  0  0  0  0  0  0
    2.5790   -2.2756    0.0000 H   0  0  0  0  0  0  0  0  0  0  0  0
    2.0392   -1.7128    0.0000 H   0  0  0  0  0  0  0  0  0  0  0  0
  1 57  1  0  0  0  0
  1 58  1  0  0  0  0
  1 59  1  0  0  0  0
  2  1  1  1  0  0  0
  2  3  1  0  0  0  0
  2  8  1  0  0  0  0
  2 19  1  0  0  0  0
  3  4  1  0  0  0  0
  3 60  1  0  0  0  0
  3 61  1  0  0  0  0
  4  5  1  0  0  0  0
  4 62  1  0  0  0  0
  4 63  1  0  0  0  0
  5 64  1  0  0  0  0
  5 65  1  0  0  0  0
  6  5  1  0  0  0  0
  6  7  1  0  0  0  0
  6  8  1  0  0  0  0
  6 43  1  1  0  0  0
  7 66  1  0  0  0  0
  7 67  1  0  0  0  0
  7 68  1  0  0  0  0
  8  9  1  0  0  0  0
  8 69  1  0  0  0  0
  9 10  1  0  0  0  0
  9 70  1  0  0  0  0
  9 71  1  0  0  0  0
 10 72  1  0  0  0  0
 10 73  1  0  0  0  0
 11 10  1  1  0  0  0
 11 12  1  0  0  0  0
 11 16  1  0  0  0  0
 11 19  1  0  0  0  0
 12 13  1  0  0  0  0
 12 74  1  0  0  0  0
 12 75  1  0  0  0  0
 13 14  2  0  0  0  0
 14 76  1  0  0  0  0
 14 77  1  0  0  0  0
 15 13  1  0  0  0  0
 15 16  1  0  0  0  0
 15 17  1  0  0  0  0
 15 20  1  6  0  0  0
 16 78  1  0  0  0  0
 16 79  1  0  0  0  0
 17 18  1  0  0  0  0
 17 80  1  0  0  0  0
 17 81  1  0  0  0  0
 18 19  1  0  0  0  0
 18 82  1  0  0  0  0
 18 83  1  0  0  0  0
 19 84  1  0  0  0  0
 21 20  1  0  0  0  0
 21 22  1  0  0  0  0
 21 85  1  6  0  0  0
 23 22  1  0  0  0  0
 23 24  1  0  0  0  0
 23 86  1  6  0  0  0
 24 25  1  0  0  0  0
 24 87  1  0  0  0  0
 24 88  1  0  0  0  0
 25 89  1  0  0  0  0
 26 23  1  0  0  0  0
 26 27  1  0  0  0  0
 26 28  1  0  0  0  0
 26 90  1  1  0  0  0
 27 91  1  0  0  0  0
 28 29  1  0  0  0  0
 28 30  1  0  0  0  0
 28 92  1  6  0  0  0
 29 93  1  0  0  0  0
 30 21  1  0  0  0  0
 30 31  1  0  0  0  0
 30 94  1  6  0  0  0
 32 31  1  0  0  0  0
 32 33  1  0  0  0  0
 32 95  1  6  0  0  0
 34 33  1  0  0  0  0
 34 35  1  0  0  0  0
 34 96  1  6  0  0  0
 35 36  1  0  0  0  0
 35 97  1  0  0  0  0
 35 98  1  0  0  0  0
 36 99  1  0  0  0  0
 37 34  1  0  0  0  0
 37 38  1  0  0  0  0
 37 39  1  0  0  0  0
 37100  1  1  0  0  0
 38101  1  0  0  0  0
 39 40  1  0  0  0  0
 39 41  1  0  0  0  0
 39102  1  6  0  0  0
 40103  1  0  0  0  0
 41 32  1  0  0  0  0
 41 42  1  0  0  0  0
 41104  1  1  0  0  0
 42105  1  0  0  0  0
 43 44  2  0  0  0  0
 43 45  1  0  0  0  0
 45 46  1  0  0  0  0
 46 47  1  0  0  0  0
 46106  1  0  0  0  0
 48 47  1  0  0  0  0
 48 49  1  0  0  0  0
 48107  1  1  0  0  0
 49 50  1  0  0  0  0
 49108  1  0  0  0  0
 49109  1  0  0  0  0
 50110  1  0  0  0  0
 51 48  1  0  0  0  0
 51 52  1  0  0  0  0
 51 53  1  0  0  0  0
 51111  1  6  0  0  0
 52112  1  0  0  0  0
 53 54  1  0  0  0  0
 53 55  1  0  0  0  0
 53113  1  1  0  0  0
 54114  1  0  0  0  0
 55 46  1  0  0  0  0
 55 56  1  0  0  0  0
 55115  1  6  0  0  0
 56116  1  0  0  0  0
M  END
$$$$
Row15
 OpenBabel08252322323D

116122  0  0  1  0  0  0  0  0999 V2000
    5.3910   -2.6450   -7.9771 C   0  0  0  0  0  0  0  0  0  0  0  0
    3.9174   -3.2126   -7.9086 C   0  0  2  0  0  0  0  0  0  0  0  0
    2.9389   -2.0246   -8.2954 C   0  0  0  0  0  0  0  0  0  0  0  0
    2.4751   -1.0620   -7.1521 C   0  0  0  0  0  0  0  0  0  0  0  0
    3.3186   -1.1109   -5.8530 C   0  0  0  0  0  0  0  0  0  0  0  0
    3.5705   -2.5658   -5.2847 C   0  0  2  0  0  0  0  0  0  0  0  0
    4.9747   -2.5495   -4.5707 C   0  0  0  0  0  0  0  0  0  0  0  0
    3.4741   -3.6615   -6.4461 C   0  0  2  0  0  0  0  0  0  0  0  0
    4.0619   -5.0556   -6.0791 C   0  0  0  0  0  0  0  0  0  0  0  0
    3.5139   -6.1964   -6.9752 C   0  0  0  0  0  0  0  0  0  0  0  0
    3.1225   -5.7828   -8.4470 C   0  0  2  0  0  0  0  0  0  0  0  0
    1.5822   -5.7048   -8.7151 C   0  0  0  0  0  0  0  0  0  0  0  0
    1.4306   -6.0925  -10.1111 C   0  0  0  0  0  0  0  0  0  0  0  0
    0.2595   -6.0032  -10.7614 C   0  0  0  0  0  0  0  0  0  0  0  0
    2.6836   -6.5521  -10.7114 C   0  0  2  0  0  0  0  0  0  0  0  0
    3.4452   -6.9577   -9.4233 C   0  0  0  0  0  0  0  0  0  0  0  0
    3.4339   -5.3373  -11.3689 C   0  0  0  0  0  0  0  0  0  0  0  0
    3.5403   -4.1006  -10.4266 C   0  0  0  0  0  0  0  0  0  0  0  0
    3.8880   -4.4673   -8.9306 C   0  0  1  0  0  0  0  0  0  0  0  0
    2.4117   -7.6530  -11.6341 O   0  0  0  0  0  0  0  0  0  0  0  0
    3.4774   -8.5505  -12.0170 C   0  0  2  0  0  0  0  0  0  0  0  0
    4.5270   -7.8345  -12.6923 O   0  0  0  0  0  0  0  0  0  0  0  0
    5.7218   -8.6035  -12.9478 C   0  0  2  0  0  0  0  0  0  0  0  0
    6.7564   -7.6322  -13.5649 C   0  0  0  0  0  0  0  0  0  0  0  0
    7.0196   -6.5639  -12.6585 O   0  0  0  0  0  0  0  0  0  0  0  0
    5.3927   -9.8254  -13.8586 C   0  0  1  0  0  0  0  0  0  0  0  0
    6.5337  -10.6758  -13.9820 O   0  0  0  0  0  0  0  0  0  0  0  0
    4.1874  -10.6275  -13.2808 C   0  0  2  0  0  0  0  0  0  0  0  0
    3.7966  -11.6608  -14.1878 O   0  0  0  0  0  0  0  0  0  0  0  0
    2.9790   -9.6976  -12.9473 C   0  0  2  0  0  0  0  0  0  0  0  0
    2.4546   -9.2495  -14.2196 O   0  0  0  0  0  0  0  0  0  0  0  0
    1.1396   -8.6620  -14.2937 C   0  0  2  0  0  0  0  0  0  0  0  0
    0.1630   -9.5143  -13.5501 O   0  0  0  0  0  0  0  0  0  0  0  0
   -1.2198   -8.9864  -13.7512 C   0  0  2  0  0  0  0  0  0  0  0  0
   -2.1430   -9.9594  -12.9786 C   0  0  0  0  0  0  0  0  0  0  0  0
   -1.7755  -10.0012  -11.6032 O   0  0  0  0  0  0  0  0  0  0  0  0
   -1.6668   -8.8630  -15.2678 C   0  0  1  0  0  0  0  0  0  0  0  0
   -2.9622   -8.2702  -15.3907 O   0  0  0  0  0  0  0  0  0  0  0  0
   -0.6207   -8.0228  -16.0540 C   0  0  2  0  0  0  0  0  0  0  0  0
   -0.9442   -8.0255  -17.4455 O   0  0  0  0  0  0  0  0  0  0  0  0
    0.8344   -8.5283  -15.8391 C   0  0  1  0  0  0  0  0  0  0  0  0
    1.7574   -7.6374  -16.4648 O   0  0  0  0  0  0  0  0  0  0  0  0
    2.5191   -2.8524   -4.2302 C   0  0  0  0  0  0  0  0  0  0  0  0
    1.3007   -2.6928   -4.4842 O   0  0  0  0  0  0  0  0  0  0  0  0
    2.8803   -3.3124   -2.9918 O   0  0  0  0  0  0  0  0  0  0  0  0
    2.1108   -3.5796   -1.8086 C   0  0  2  0  0  0  0  0  0  0  0  0
    1.6657   -2.3334   -1.2156 O   0  0  0  0  0  0  0  0  0  0  0  0
    1.0627   -2.4458    0.1017 C   0  0  2  0  0  0  0  0  0  0  0  0
    0.6283   -1.0320    0.5665 C   0  0  0  0  0  0  0  0  0  0  0  0
   -0.3981   -0.5086   -0.2691 O   0  0  0  0  0  0  0  0  0  0  0  0
    2.0724   -3.0894    1.1019 C   0  0  1  0  0  0  0  0  0  0  0  0
    1.5174   -3.2363    2.4106 O   0  0  0  0  0  0  0  0  0  0  0  0
    2.5189   -4.4758    0.5734 C   0  0  2  0  0  0  0  0  0  0  0  0
    3.5171   -5.0323    1.4281 O   0  0  0  0  0  0  0  0  0  0  0  0
    3.0730   -4.3589   -0.8682 C   0  0  1  0  0  0  0  0  0  0  0  0
    3.3328   -5.6585   -1.3977 O   0  0  0  0  0  0  0  0  0  0  0  0
    5.4810   -1.8060   -7.3192 H   0  0  0  0  0  0  0  0  0  0  0  0
    5.6087   -2.3379   -8.9787 H   0  0  0  0  0  0  0  0  0  0  0  0
    6.0809   -3.4069   -7.6798 H   0  0  0  0  0  0  0  0  0  0  0  0
    2.0599   -2.4608   -8.7220 H   0  0  0  0  0  0  0  0  0  0  0  0
    3.5122   -1.4058   -8.9537 H   0  0  0  0  0  0  0  0  0  0  0  0
    1.4662   -1.3131   -6.8993 H   0  0  0  0  0  0  0  0  0  0  0  0
    2.5901   -0.0710   -7.5389 H   0  0  0  0  0  0  0  0  0  0  0  0
    2.8089   -0.5433   -5.1027 H   0  0  0  0  0  0  0  0  0  0  0  0
    4.2800   -0.7119   -6.1009 H   0  0  0  0  0  0  0  0  0  0  0  0
    5.7392   -2.3490   -5.2919 H   0  0  0  0  0  0  0  0  0  0  0  0
    5.1545   -3.5010   -4.1156 H   0  0  0  0  0  0  0  0  0  0  0  0
    4.9841   -1.7874   -3.8197 H   0  0  0  0  0  0  0  0  0  0  0  0
    2.4113   -3.7674   -6.5108 H   0  0  0  0  0  0  0  0  0  0  0  0
    3.8152   -5.2728   -5.0608 H   0  0  0  0  0  0  0  0  0  0  0  0
    5.1200   -5.0081   -6.2310 H   0  0  0  0  0  0  0  0  0  0  0  0
    2.6406   -6.5950   -6.5025 H   0  0  0  0  0  0  0  0  0  0  0  0
    4.3139   -6.9001   -7.0731 H   0  0  0  0  0  0  0  0  0  0  0  0
    1.2217   -4.7096   -8.5584 H   0  0  0  0  0  0  0  0  0  0  0  0
    1.0238   -6.3364   -8.0562 H   0  0  0  0  0  0  0  0  0  0  0  0
   -0.5817   -5.6687  -10.2659 H   0  0  0  0  0  0  0  0  0  0  0  0
    0.2004   -6.2691  -11.7568 H   0  0  0  0  0  0  0  0  0  0  0  0
    3.0840   -7.8887   -9.0389 H   0  0  0  0  0  0  0  0  0  0  0  0
    4.4937   -7.1036   -9.5790 H   0  0  0  0  0  0  0  0  0  0  0  0
    2.9039   -5.0476  -12.2521 H   0  0  0  0  0  0  0  0  0  0  0  0
    4.4310   -5.6587  -11.5866 H   0  0  0  0  0  0  0  0  0  0  0  0
    2.6024   -3.5857  -10.4385 H   0  0  0  0  0  0  0  0  0  0  0  0
    4.3436   -3.4969  -10.7942 H   0  0  0  0  0  0  0  0  0  0  0  0
    4.9209   -4.7458   -8.9107 H   0  0  0  0  0  0  0  0  0  0  0  0
    3.8480   -8.9833  -11.1113 H   0  0  0  0  0  0  0  0  0  0  0  0
    6.1328   -9.0217  -12.0528 H   0  0  0  0  0  0  0  0  0  0  0  0
    6.3682   -7.2343  -14.4792 H   0  0  0  0  0  0  0  0  0  0  0  0
    7.6656   -8.1622  -13.7584 H   0  0  0  0  0  0  0  0  0  0  0  0
    6.1975   -6.0809  -12.4806 H   0  0  0  0  0  0  0  0  0  0  0  0
    5.1282   -9.4608  -14.8292 H   0  0  0  0  0  0  0  0  0  0  0  0
    6.7823  -11.0123  -13.1069 H   0  0  0  0  0  0  0  0  0  0  0  0
    4.5055  -11.0766  -12.3632 H   0  0  0  0  0  0  0  0  0  0  0  0
    3.5061  -11.2642  -15.0240 H   0  0  0  0  0  0  0  0  0  0  0  0
    2.1896  -10.1829  -12.4122 H   0  0  0  0  0  0  0  0  0  0  0  0
    1.0693   -7.6994  -13.8318 H   0  0  0  0  0  0  0  0  0  0  0  0
   -1.2726   -7.9798  -13.3921 H   0  0  0  0  0  0  0  0  0  0  0  0
   -2.0530  -10.9396  -13.3981 H   0  0  0  0  0  0  0  0  0  0  0  0
   -3.1539   -9.6181  -13.0589 H   0  0  0  0  0  0  0  0  0  0  0  0
   -0.8595  -10.3099  -11.5225 H   0  0  0  0  0  0  0  0  0  0  0  0
   -1.7215   -9.8497  -15.6782 H   0  0  0  0  0  0  0  0  0  0  0  0
   -2.9426   -7.3718  -15.0254 H   0  0  0  0  0  0  0  0  0  0  0  0
   -0.6627   -7.0236  -15.6734 H   0  0  0  0  0  0  0  0  0  0  0  0
   -0.9046   -8.9333  -17.7849 H   0  0  0  0  0  0  0  0  0  0  0  0
    0.9414   -9.4941  -16.2870 H   0  0  0  0  0  0  0  0  0  0  0  0
    1.6737   -6.7554  -16.0700 H   0  0  0  0  0  0  0  0  0  0  0  0
    1.2260   -4.1477   -2.0070 H   0  0  0  0  0  0  0  0  0  0  0  0
    0.2021   -3.0805    0.0639 H   0  0  0  0  0  0  0  0  0  0  0  0
    1.4743   -0.3778    0.5317 H   0  0  0  0  0  0  0  0  0  0  0  0
    0.2488   -1.1049    1.5643 H   0  0  0  0  0  0  0  0  0  0  0  0
   -0.0691   -0.4363   -1.1787 H   0  0  0  0  0  0  0  0  0  0  0  0
    2.9129   -2.4315    1.1766 H   0  0  0  0  0  0  0  0  0  0  0  0
    0.7512   -3.8298    2.3721 H   0  0  0  0  0  0  0  0  0  0  0  0
    1.6648   -5.1203    0.5631 H   0  0  0  0  0  0  0  0  0  0  0  0
    4.2933   -4.4507    1.4401 H   0  0  0  0  0  0  0  0  0  0  0  0
    3.9853   -3.8022   -0.8164 H   0  0  0  0  0  0  0  0  0  0  0  0
    2.5041   -6.1606   -1.4434 H   0  0  0  0  0  0  0  0  0  0  0  0
  1 57  1  0  0  0  0
  1 58  1  0  0  0  0
  1 59  1  0  0  0  0
  2  1  1  1  0  0  0
  2  3  1  0  0  0  0
  2  8  1  0  0  0  0
  2 19  1  0  0  0  0
  3  4  1  0  0  0  0
  3 60  1  0  0  0  0
  3 61  1  0  0  0  0
  4  5  1  0  0  0  0
  4 62  1  0  0  0  0
  4 63  1  0  0  0  0
  5  6  1  0  0  0  0
  5 64  1  0  0  0  0
  5 65  1  0  0  0  0
  6  7  1  0  0  0  0
  6  8  1  0  0  0  0
  6 43  1  1  0  0  0
  7 66  1  0  0  0  0
  7 67  1  0  0  0  0
  7 68  1  0  0  0  0
  8  9  1  0  0  0  0
  8 69  1  6  0  0  0
  9 10  1  0  0  0  0
  9 70  1  0  0  0  0
  9 71  1  0  0  0  0
 10 72  1  0  0  0  0
 10 73  1  0  0  0  0
 11 10  1  1  0  0  0
 11 12  1  0  0  0  0
 11 16  1  0  0  0  0
 11 19  1  0  0  0  0
 12 13  1  0  0  0  0
 12 74  1  0  0  0  0
 12 75  1  0  0  0  0
 13 14  2  0  0  0  0
 13 15  1  0  0  0  0
 14 76  1  0  0  0  0
 14 77  1  0  0  0  0
 15 16  1  0  0  0  0
 15 17  1  0  0  0  0
 15 20  1  6  0  0  0
 16 78  1  0  0  0  0
 16 79  1  0  0  0  0
 17 18  1  0  0  0  0
 17 80  1  0  0  0  0
 17 81  1  0  0  0  0
 18 19  1  0  0  0  0
 18 82  1  0  0  0  0
 18 83  1  0  0  0  0
 19 84  1  6  0  0  0
 20 21  1  0  0  0  0
 21 22  1  0  0  0  0
 21 30  1  0  0  0  0
 21 85  1  1  0  0  0
 22 23  1  0  0  0  0
 23 24  1  0  0  0  0
 23 26  1  0  0  0  0
 23 86  1  1  0  0  0
 24 25  1  0  0  0  0
 24 87  1  0  0  0  0
 24 88  1  0  0  0  0
 25 89  1  0  0  0  0
 26 27  1  0  0  0  0
 26 28  1  0  0  0  0
 26 90  1  6  0  0  0
 27 91  1  0  0  0  0
 28 29  1  0  0  0  0
 28 30  1  0  0  0  0
 28 92  1  1  0  0  0
 29 93  1  0  0  0  0
 30 31  1  0  0  0  0
 30 94  1  1  0  0  0
 31 32  1  0  0  0  0
 32 33  1  0  0  0  0
 32 41  1  0  0  0  0
 32 95  1  1  0  0  0
 33 34  1  0  0  0  0
 34 35  1  0  0  0  0
 34 37  1  0  0  0  0
 34 96  1  1  0  0  0
 35 36  1  0  0  0  0
 35 97  1  0  0  0  0
 35 98  1  0  0  0  0
 36 99  1  0  0  0  0
 37 38  1  0  0  0  0
 37 39  1  0  0  0  0
 37100  1  6  0  0  0
 38101  1  0  0  0  0
 39 40  1  0  0  0  0
 39 41  1  0  0  0  0
 39102  1  1  0  0  0
 40103  1  0  0  0  0
 41 42  1  0  0  0  0
 41104  1  6  0  0  0
 42105  1  0  0  0  0
 43 44  2  0  0  0  0
 43 45  1  0  0  0  0
 45 46  1  0  0  0  0
 46 47  1  0  0  0  0
 46 55  1  0  0  0  0
 46106  1  6  0  0  0
 47 48  1  0  0  0  0
 48 49  1  0  0  0  0
 48 51  1  0  0  0  0
 48107  1  6  0  0  0
 49 50  1  0  0  0  0
 49108  1  0  0  0  0
 49109  1  0  0  0  0
 50110  1  0  0  0  0
 51 52  1  0  0  0  0
 51 53  1  0  0  0  0
 51111  1  1  0  0  0
 52112  1  0  0  0  0
 53 54  1  0  0  0  0
 53 55  1  0  0  0  0
 53113  1  6  0  0  0
 54114  1  0  0  0  0
 55 56  1  0  0  0  0
 55115  1  1  0  0  0
 56116  1  0  0  0  0
M  END
$$$$
Row16
 OpenBabel08252322322D

116122  0  0  1  0  0  0  0  0999 V2000
    1.8257    0.7777    0.0000 C   0  0  0  0  0  0  0  0  0  0  0  0
    2.0661   -0.0115    0.0000 C   0  0  2  0  0  0  0  0  0  0  0  0
    2.6242    0.5960    0.0000 C   0  0  0  0  0  0  0  0  0  0  0  0
    3.4294    0.4164    0.0000 C   0  0  0  0  0  0  0  0  0  0  0  0
    3.6765   -0.3707    0.0000 C   0  0  0  0  0  0  0  0  0  0  0  0
    3.1184   -0.9782    0.0000 C   0  0  2  0  0  0  0  0  0  0  0  0
    3.8136   -1.4224    0.0000 C   0  0  0  0  0  0  0  0  0  0  0  0
    2.3132   -0.7987    0.0000 C   0  0  3  0  0  0  0  0  0  0  0  0
    1.7596   -1.4229    0.0000 C   0  0  0  0  0  0  0  0  0  0  0  0
    0.9506   -1.2543    0.0000 C   0  0  0  0  0  0  0  0  0  0  0  0
    0.6469   -0.4671    0.0000 C   0  0  2  0  0  0  0  0  0  0  0  0
   -0.1637   -0.8483    0.0000 C   0  0  0  0  0  0  0  0  0  0  0  0
   -0.7854   -0.2403    0.0000 C   0  0  0  0  0  0  0  0  0  0  0  0
   -1.5987   -0.3788    0.0000 C   0  0  0  0  0  0  0  0  0  0  0  0
   -0.4028    0.5335    0.0000 C   0  0  1  0  0  0  0  0  0  0  0  0
    0.1726    0.0666    0.0000 C   0  0  0  0  0  0  0  0  0  0  0  0
    0.1586    1.1914    0.0000 C   0  0  0  0  0  0  0  0  0  0  0  0
    1.0038    1.0309    0.0000 C   0  0  0  0  0  0  0  0  0  0  0  0
    1.2474    0.1857    0.0000 C   0  0  3  0  0  0  0  0  0  0  0  0
   -1.0916    0.9875    0.0000 O   0  0  0  0  0  0  0  0  0  0  0  0
   -1.0428    1.8111    0.0000 C   0  0  1  0  0  0  0  0  0  0  0  0
   -0.3051    2.1806    0.0000 O   0  0  0  0  0  0  0  0  0  0  0  0
   -0.2563    3.0041    0.0000 C   0  0  2  0  0  0  0  0  0  0  0  0
    0.4813    3.3736    0.0000 C   0  0  0  0  0  0  0  0  0  0  0  0
    1.1701    2.9196    0.0000 O   0  0  0  0  0  0  0  0  0  0  0  0
   -0.9451    3.4582    0.0000 C   0  0  1  0  0  0  0  0  0  0  0  0
   -0.8963    4.2817    0.0000 O   0  0  0  0  0  0  0  0  0  0  0  0
   -1.6828    3.0887    0.0000 C   0  0  2  0  0  0  0  0  0  0  0  0
   -2.3716    3.5427    0.0000 O   0  0  0  0  0  0  0  0  0  0  0  0
   -1.7316    2.2651    0.0000 C   0  0  2  0  0  0  0  0  0  0  0  0
   -2.4692    1.8956    0.0000 O   0  0  0  0  0  0  0  0  0  0  0  0
   -3.1580    2.3497    0.0000 C   0  0  2  0  0  0  0  0  0  0  0  0
   -3.1092    3.1732    0.0000 O   0  0  0  0  0  0  0  0  0  0  0  0
   -3.7980    3.6273    0.0000 C   0  0  2  0  0  0  0  0  0  0  0  0
   -3.7492    4.4508    0.0000 C   0  0  0  0  0  0  0  0  0  0  0  0
   -3.0116    4.8203    0.0000 O   0  0  0  0  0  0  0  0  0  0  0  0
   -4.5356    3.2578    0.0000 C   0  0  1  0  0  0  0  0  0  0  0  0
   -5.2245    3.7118    0.0000 O   0  0  0  0  0  0  0  0  0  0  0  0
   -4.5844    2.4342    0.0000 C   0  0  2  0  0  0  0  0  0  0  0  0
   -5.3221    2.0647    0.0000 O   0  0  0  0  0  0  0  0  0  0  0  0
   -3.8956    1.9802    0.0000 C   0  0  1  0  0  0  0  0  0  0  0  0
   -3.9444    1.1566    0.0000 O   0  0  0  0  0  0  0  0  0  0  0  0
    2.8017   -1.7400    0.0000 C   0  0  0  0  0  0  0  0  0  0  0  0
    1.9836   -1.8467    0.0000 O   0  0  0  0  0  0  0  0  0  0  0  0
    3.3031   -2.3952    0.0000 O   0  0  0  0  0  0  0  0  0  0  0  0
    2.9864   -3.1570    0.0000 C   0  0  2  0  0  0  0  0  0  0  0  0
    3.4878   -3.8122    0.0000 O   0  0  0  0  0  0  0  0  0  0  0  0
    3.1711   -4.5740    0.0000 C   0  0  2  0  0  0  0  0  0  0  0  0
    3.6725   -5.2291    0.0000 C   0  0  0  0  0  0  0  0  0  0  0  0
    4.4906   -5.1225    0.0000 O   0  0  0  0  0  0  0  0  0  0  0  0
    2.3531   -4.6806    0.0000 C   0  0  1  0  0  0  0  0  0  0  0  0
    2.0364   -5.4424    0.0000 O   0  0  0  0  0  0  0  0  0  0  0  0
    1.8517   -4.0254    0.0000 C   0  0  2  0  0  0  0  0  0  0  0  0
    1.0336   -4.1321    0.0000 O   0  0  0  0  0  0  0  0  0  0  0  0
    2.1683   -3.2636    0.0000 C   0  0  1  0  0  0  0  0  0  0  0  0
    1.6669   -2.6085    0.0000 O   0  0  0  0  0  0  0  0  0  0  0  0
    2.5562    1.5595    0.0000 H   0  0  0  0  0  0  0  0  0  0  0  0
    0.7834    1.0195    0.0000 H   0  0  0  0  0  0  0  0  0  0  0  0
    1.5139    1.8013    0.0000 H   0  0  0  0  0  0  0  0  0  0  0  0
    2.3038    1.6169    0.0000 H   0  0  0  0  0  0  0  0  0  0  0  0
    3.3481    1.3840    0.0000 H   0  0  0  0  0  0  0  0  0  0  0  0
    4.1533    1.2044    0.0000 H   0  0  0  0  0  0  0  0  0  0  0  0
    4.4737    0.1835    0.0000 H   0  0  0  0  0  0  0  0  0  0  0  0
    4.7208   -0.6036    0.0000 H   0  0  0  0  0  0  0  0  0  0  0  0
    3.9970   -1.3916    0.0000 H   0  0  0  0  0  0  0  0  0  0  0  0
    3.7655   -2.4913    0.0000 H   0  0  0  0  0  0  0  0  0  0  0  0
    4.7634   -0.9296    0.0000 H   0  0  0  0  0  0  0  0  0  0  0  0
    4.7153   -1.9985    0.0000 H   0  0  0  0  0  0  0  0  0  0  0  0
    3.0370   -0.0107    0.0000 H   0  0  0  0  0  0  0  0  0  0  0  0
    2.0961   -2.4386    0.0000 H   0  0  0  0  0  0  0  0  0  0  0  0
    1.0475   -2.2215    0.0000 H   0  0  0  0  0  0  0  0  0  0  0  0
    0.2580   -2.0699    0.0000 H   0  0  0  0  0  0  0  0  0  0  0  0
   -0.1044   -1.0755    0.0000 H   0  0  0  0  0  0  0  0  0  0  0  0
   -0.3419   -1.9034    0.0000 H   0  0  0  0  0  0  0  0  0  0  0  0
   -1.1812   -1.1794    0.0000 H   0  0  0  0  0  0  0  0  0  0  0  0
   -2.2574    0.4156    0.0000 H   0  0  0  0  0  0  0  0  0  0  0  0
   -1.9573   -1.3465    0.0000 H   0  0  0  0  0  0  0  0  0  0  0  0
    0.9120    0.8400    0.0000 H   0  0  0  0  0  0  0  0  0  0  0  0
    0.1052    1.1345    0.0000 H   0  0  0  0  0  0  0  0  0  0  0  0
   -0.1966    2.2007    0.0000 H   0  0  0  0  0  0  0  0  0  0  0  0
    0.8561    2.0028    0.0000 H   0  0  0  0  0  0  0  0  0  0  0  0
    1.7244    1.8218    0.0000 H   0  0  0  0  0  0  0  0  0  0  0  0
    2.0458    0.7878    0.0000 H   0  0  0  0  0  0  0  0  0  0  0  0
    1.5589   -0.8380    0.0000 H   0  0  0  0  0  0  0  0  0  0  0  0
   -0.1494    1.2222    0.0000 H   0  0  0  0  0  0  0  0  0  0  0  0
    0.6371    2.4152    0.0000 H   0  0  0  0  0  0  0  0  0  0  0  0
    0.5446    4.4417    0.0000 H   0  0  0  0  0  0  0  0  0  0  0  0
    1.4380    3.8529    0.0000 H   0  0  0  0  0  0  0  0  0  0  0  0
    1.1127    1.9513    0.0000 H   0  0  0  0  0  0  0  0  0  0  0  0
    0.0116    3.9374    0.0000 H   0  0  0  0  0  0  0  0  0  0  0  0
   -0.0290    4.7162    0.0000 H   0  0  0  0  0  0  0  0  0  0  0  0
   -1.6195    4.1568    0.0000 H   0  0  0  0  0  0  0  0  0  0  0  0
   -2.3142    4.5110    0.0000 H   0  0  0  0  0  0  0  0  0  0  0  0
   -1.7949    1.1970    0.0000 H   0  0  0  0  0  0  0  0  0  0  0  0
   -2.2013    2.8289    0.0000 H   0  0  0  0  0  0  0  0  0  0  0  0
   -2.8413    4.1065    0.0000 H   0  0  0  0  0  0  0  0  0  0  0  0
   -4.6426    5.0397    0.0000 H   0  0  0  0  0  0  0  0  0  0  0  0
   -3.6859    5.5189    0.0000 H   0  0  0  0  0  0  0  0  0  0  0  0
   -2.2017    4.2865    0.0000 H   0  0  0  0  0  0  0  0  0  0  0  0
   -4.4724    4.3259    0.0000 H   0  0  0  0  0  0  0  0  0  0  0  0
   -5.1672    4.6801    0.0000 H   0  0  0  0  0  0  0  0  0  0  0  0
   -5.4778    3.0231    0.0000 H   0  0  0  0  0  0  0  0  0  0  0  0
   -6.1320    2.5986    0.0000 H   0  0  0  0  0  0  0  0  0  0  0  0
   -3.0022    1.3913    0.0000 H   0  0  0  0  0  0  0  0  0  0  0  0
   -4.8117    0.7221    0.0000 H   0  0  0  0  0  0  0  0  0  0  0  0
    4.0474   -3.0187    0.0000 H   0  0  0  0  0  0  0  0  0  0  0  0
    4.2321   -4.4357    0.0000 H   0  0  0  0  0  0  0  0  0  0  0  0
    3.2618   -6.2171    0.0000 H   0  0  0  0  0  0  0  0  0  0  0  0
    4.3228   -6.0788    0.0000 H   0  0  0  0  0  0  0  0  0  0  0  0
    5.0801   -5.8928    0.0000 H   0  0  0  0  0  0  0  0  0  0  0  0
    3.0034   -5.5303    0.0000 H   0  0  0  0  0  0  0  0  0  0  0  0
    1.0745   -5.5678    0.0000 H   0  0  0  0  0  0  0  0  0  0  0  0
    1.4410   -5.0134    0.0000 H   0  0  0  0  0  0  0  0  0  0  0  0
    0.4440   -3.3618    0.0000 H   0  0  0  0  0  0  0  0  0  0  0  0
    2.5790   -2.2756    0.0000 H   0  0  0  0  0  0  0  0  0  0  0  0
    2.0392   -1.7128    0.0000 H   0  0  0  0  0  0  0  0  0  0  0  0
  1 57  1  0  0  0  0
  1 58  1  0  0  0  0
  1 59  1  0  0  0  0
  2  1  1  6  0  0  0
  2  3  1  0  0  0  0
  2  8  1  0  0  0  0
  2 19  1  0  0  0  0
  3  4  1  0  0  0  0
  3 60  1  0  0  0  0
  3 61  1  0  0  0  0
  4  5  1  0  0  0  0
  4 62  1  0  0  0  0
  4 63  1  0  0  0  0
  5 64  1  0  0  0  0
  5 65  1  0  0  0  0
  6  5  1  0  0  0  0
  6  7  1  0  0  0  0
  6  8  1  0  0  0  0
  6 43  1  1  0  0  0
  7 66  1  0  0  0  0
  7 67  1  0  0  0  0
  7 68  1  0  0  0  0
  8  9  1  0  0  0  0
  8 69  1  0  0  0  0
  9 10  1  0  0  0  0
  9 70  1  0  0  0  0
  9 71  1  0  0  0  0
 10 72  1  0  0  0  0
 10 73  1  0  0  0  0
 11 10  1  6  0  0  0
 11 12  1  0  0  0  0
 11 16  1  0  0  0  0
 11 19  1  0  0  0  0
 12 13  1  0  0  0  0
 12 74  1  0  0  0  0
 12 75  1  0  0  0  0
 13 14  2  0  0  0  0
 14 76  1  0  0  0  0
 14 77  1  0  0  0  0
 15 13  1  0  0  0  0
 15 16  1  0  0  0  0
 15 17  1  0  0  0  0
 15 20  1  1  0  0  0
 16 78  1  0  0  0  0
 16 79  1  0  0  0  0
 17 18  1  0  0  0  0
 17 80  1  0  0  0  0
 17 81  1  0  0  0  0
 18 19  1  0  0  0  0
 18 82  1  0  0  0  0
 18 83  1  0  0  0  0
 19 84  1  0  0  0  0
 21 20  1  0  0  0  0
 21 22  1  0  0  0  0
 21 85  1  1  0  0  0
 23 22  1  0  0  0  0
 23 24  1  0  0  0  0
 23 86  1  6  0  0  0
 24 25  1  0  0  0  0
 24 87  1  0  0  0  0
 24 88  1  0  0  0  0
 25 89  1  0  0  0  0
 26 23  1  0  0  0  0
 26 27  1  0  0  0  0
 26 28  1  0  0  0  0
 26 90  1  1  0  0  0
 27 91  1  0  0  0  0
 28 29  1  0  0  0  0
 28 30  1  0  0  0  0
 28 92  1  6  0  0  0
 29 93  1  0  0  0  0
 30 21  1  0  0  0  0
 30 31  1  0  0  0  0
 30 94  1  6  0  0  0
 32 31  1  0  0  0  0
 32 33  1  0  0  0  0
 32 95  1  6  0  0  0
 34 33  1  0  0  0  0
 34 35  1  0  0  0  0
 34 96  1  6  0  0  0
 35 36  1  0  0  0  0
 35 97  1  0  0  0  0
 35 98  1  0  0  0  0
 36 99  1  0  0  0  0
 37 34  1  0  0  0  0
 37 38  1  0  0  0  0
 37 39  1  0  0  0  0
 37100  1  1  0  0  0
 38101  1  0  0  0  0
 39 40  1  0  0  0  0
 39 41  1  0  0  0  0
 39102  1  6  0  0  0
 40103  1  0  0  0  0
 41 32  1  0  0  0  0
 41 42  1  0  0  0  0
 41104  1  1  0  0  0
 42105  1  0  0  0  0
 43 44  2  0  0  0  0
 43 45  1  0  0  0  0
 46 45  1  0  0  0  0
 46 47  1  0  0  0  0
 46106  1  1  0  0  0
 48 47  1  0  0  0  0
 48 49  1  0  0  0  0
 48107  1  1  0  0  0
 49 50  1  0  0  0  0
 49108  1  0  0  0  0
 49109  1  0  0  0  0
 50110  1  0  0  0  0
 51 48  1  0  0  0  0
 51 52  1  0  0  0  0
 51 53  1  0  0  0  0
 51111  1  6  0  0  0
 52112  1  0  0  0  0
 53 54  1  0  0  0  0
 53 55  1  0  0  0  0
 53113  1  1  0  0  0
 54114  1  0  0  0  0
 55 46  1  0  0  0  0
 55 56  1  0  0  0  0
 55115  1  6  0  0  0
 56116  1  0  0  0  0
M  END
$$$$
Row17
 OpenBabel08252322323D

116122  0  0  1  0  0  0  0  0999 V2000
    3.4568   -0.6627   -3.1851 C   0  0  0  0  0  0  0  0  0  0  0  0
    3.9115   -0.5518   -4.6936 C   0  0  1  0  0  0  0  0  0  0  0  0
    5.4128   -1.0383   -4.7777 C   0  0  0  0  0  0  0  0  0  0  0  0
    5.6383   -2.5568   -4.5468 C   0  0  0  0  0  0  0  0  0  0  0  0
    4.7239   -3.4273   -5.4426 C   0  0  0  0  0  0  0  0  0  0  0  0
    3.1900   -3.0560   -5.4293 C   0  0  2  0  0  0  0  0  0  0  0  0
    2.5526   -3.8867   -6.6045 C   0  0  0  0  0  0  0  0  0  0  0  0
    3.0548   -1.4836   -5.6688 C   0  0  1  0  0  0  0  0  0  0  0  0
    1.5852   -0.9466   -5.8236 C   0  0  0  0  0  0  0  0  0  0  0  0
    1.5252    0.5084   -6.3429 C   0  0  0  0  0  0  0  0  0  0  0  0
    2.3424    1.5133   -5.4722 C   0  0  2  0  0  0  0  0  0  0  0  0
    1.5964    2.0014   -4.1896 C   0  0  0  0  0  0  0  0  0  0  0  0
    2.2005    3.2858   -3.9142 C   0  0  0  0  0  0  0  0  0  0  0  0
    2.1060    3.8629   -2.7068 C   0  0  0  0  0  0  0  0  0  0  0  0
    2.9546    3.8021   -5.0593 C   0  0  2  0  0  0  0  0  0  0  0  0
    2.4122    2.8957   -6.1929 C   0  0  0  0  0  0  0  0  0  0  0  0
    4.4782    3.4779   -4.8875 C   0  0  0  0  0  0  0  0  0  0  0  0
    4.7523    1.9983   -4.4990 C   0  0  0  0  0  0  0  0  0  0  0  0
    3.8203    0.9558   -5.2343 C   0  0  1  0  0  0  0  0  0  0  0  0
    2.6178    5.2055   -5.2254 O   0  0  0  0  0  0  0  0  0  0  0  0
    3.2165    6.0071   -6.2661 C   0  0  2  0  0  0  0  0  0  0  0  0
    4.6564    6.0362   -6.1746 O   0  0  0  0  0  0  0  0  0  0  0  0
    5.3189    6.6595   -7.2957 C   0  0  2  0  0  0  0  0  0  0  0  0
    6.8421    6.4757   -7.1025 C   0  0  0  0  0  0  0  0  0  0  0  0
    7.1739    5.0929   -7.0291 O   0  0  0  0  0  0  0  0  0  0  0  0
    4.9069    8.1580   -7.3766 C   0  0  1  0  0  0  0  0  0  0  0  0
    5.4263    8.7651   -8.5607 O   0  0  0  0  0  0  0  0  0  0  0  0
    3.3589    8.3040   -7.3342 C   0  0  2  0  0  0  0  0  0  0  0  0
    3.0137    9.6847   -7.2239 O   0  0  0  0  0  0  0  0  0  0  0  0
    2.7195    7.4858   -6.1702 C   0  0  2  0  0  0  0  0  0  0  0  0
    3.0595    8.1724   -4.9306 O   0  0  0  0  0  0  0  0  0  0  0  0
    2.4225    7.7427   -3.7094 C   0  0  2  0  0  0  0  0  0  0  0  0
    0.9446    7.6915   -3.9231 O   0  0  0  0  0  0  0  0  0  0  0  0
    0.2621    7.2314   -2.6775 C   0  0  2  0  0  0  0  0  0  0  0  0
   -1.2530    7.3377   -2.9773 C   0  0  0  0  0  0  0  0  0  0  0  0
   -1.5829    6.5696   -4.1323 O   0  0  0  0  0  0  0  0  0  0  0  0
    0.6330    8.0382   -1.3653 C   0  0  1  0  0  0  0  0  0  0  0  0
    0.0891    7.3986   -0.2108 O   0  0  0  0  0  0  0  0  0  0  0  0
    2.1763    8.1661   -1.2207 C   0  0  2  0  0  0  0  0  0  0  0  0
    2.4861    9.0304   -0.1300 O   0  0  0  0  0  0  0  0  0  0  0  0
    2.8569    8.6836   -2.5218 C   0  0  1  0  0  0  0  0  0  0  0  0
    4.2737    8.6943   -2.3601 O   0  0  0  0  0  0  0  0  0  0  0  0
    2.4988   -3.4755   -4.1652 C   0  0  0  0  0  0  0  0  0  0  0  0
    1.2482   -3.3995   -4.0841 O   0  0  0  0  0  0  0  0  0  0  0  0
    3.1856   -3.9386   -3.0753 O   0  0  0  0  0  0  0  0  0  0  0  0
    2.6226   -4.1654   -1.7741 C   0  0  2  0  0  0  0  0  0  0  0  0
    2.0748   -2.8999   -1.3423 O   0  0  0  0  0  0  0  0  0  0  0  0
    1.4722   -2.8709   -0.0347 C   0  0  2  0  0  0  0  0  0  0  0  0
    0.9890   -1.4190    0.2142 C   0  0  0  0  0  0  0  0  0  0  0  0
    0.0980   -0.9996   -0.8142 O   0  0  0  0  0  0  0  0  0  0  0  0
    2.4883   -3.3400    1.0501 C   0  0  1  0  0  0  0  0  0  0  0  0
    1.8359   -3.4858    2.3099 O   0  0  0  0  0  0  0  0  0  0  0  0
    3.1548   -4.6836    0.6480 C   0  0  2  0  0  0  0  0  0  0  0  0
    4.1834   -5.0141    1.5773 O   0  0  0  0  0  0  0  0  0  0  0  0
    3.7314   -4.6184   -0.7916 C   0  0  1  0  0  0  0  0  0  0  0  0
    4.2538   -5.8878   -1.1799 O   0  0  0  0  0  0  0  0  0  0  0  0
    3.5321   -1.6805   -2.8638 H   0  0  0  0  0  0  0  0  0  0  0  0
    2.4428   -0.3337   -3.0931 H   0  0  0  0  0  0  0  0  0  0  0  0
    4.0875   -0.0489   -2.5764 H   0  0  0  0  0  0  0  0  0  0  0  0
    5.9736   -0.5058   -4.0382 H   0  0  0  0  0  0  0  0  0  0  0  0
    5.7282   -0.8443   -5.7816 H   0  0  0  0  0  0  0  0  0  0  0  0
    5.4329   -2.7836   -3.5215 H   0  0  0  0  0  0  0  0  0  0  0  0
    6.6538   -2.7799   -4.7994 H   0  0  0  0  0  0  0  0  0  0  0  0
    4.8182   -4.4427   -5.1186 H   0  0  0  0  0  0  0  0  0  0  0  0
    5.0543   -3.2566   -6.4459 H   0  0  0  0  0  0  0  0  0  0  0  0
    3.0206   -3.6155   -7.5277 H   0  0  0  0  0  0  0  0  0  0  0  0
    1.5046   -3.6783   -6.6611 H   0  0  0  0  0  0  0  0  0  0  0  0
    2.6993   -4.9310   -6.4236 H   0  0  0  0  0  0  0  0  0  0  0  0
    3.5117   -1.3957   -6.6324 H   0  0  0  0  0  0  0  0  0  0  0  0
    1.1048   -0.9878   -4.8684 H   0  0  0  0  0  0  0  0  0  0  0  0
    1.0930   -1.5645   -6.5453 H   0  0  0  0  0  0  0  0  0  0  0  0
    0.5024    0.8227   -6.3531 H   0  0  0  0  0  0  0  0  0  0  0  0
    1.9601    0.5123   -7.3205 H   0  0  0  0  0  0  0  0  0  0  0  0
    1.7514    1.3238   -3.3761 H   0  0  0  0  0  0  0  0  0  0  0  0
    0.5362    2.0599   -4.3217 H   0  0  0  0  0  0  0  0  0  0  0  0
    1.5467    3.4159   -1.9636 H   0  0  0  0  0  0  0  0  0  0  0  0
    2.5926    4.7538   -2.5212 H   0  0  0  0  0  0  0  0  0  0  0  0
    1.4454    3.2155   -6.5213 H   0  0  0  0  0  0  0  0  0  0  0  0
    3.0108    2.8977   -7.0798 H   0  0  0  0  0  0  0  0  0  0  0  0
    4.8754    4.1095   -4.1205 H   0  0  0  0  0  0  0  0  0  0  0  0
    4.9471    3.6489   -5.8340 H   0  0  0  0  0  0  0  0  0  0  0  0
    4.6055    1.8950   -3.4442 H   0  0  0  0  0  0  0  0  0  0  0  0
    5.7560    1.7810   -4.7994 H   0  0  0  0  0  0  0  0  0  0  0  0
    4.2377    0.8522   -6.2141 H   0  0  0  0  0  0  0  0  0  0  0  0
    2.9262    5.5569   -7.1924 H   0  0  0  0  0  0  0  0  0  0  0  0
    5.0334    6.2092   -8.2234 H   0  0  0  0  0  0  0  0  0  0  0  0
    7.1425    6.9582   -6.1959 H   0  0  0  0  0  0  0  0  0  0  0  0
    7.3509    6.9090   -7.9381 H   0  0  0  0  0  0  0  0  0  0  0  0
    6.7171    4.6904   -6.2740 H   0  0  0  0  0  0  0  0  0  0  0  0
    5.3221    8.6606   -6.5281 H   0  0  0  0  0  0  0  0  0  0  0  0
    5.0587    8.3199   -9.3402 H   0  0  0  0  0  0  0  0  0  0  0  0
    2.9657    7.9047   -8.2457 H   0  0  0  0  0  0  0  0  0  0  0  0
    3.3720   10.0425   -6.3965 H   0  0  0  0  0  0  0  0  0  0  0  0
    1.6520    7.4307   -6.2180 H   0  0  0  0  0  0  0  0  0  0  0  0
    2.7345    6.7556   -3.4387 H   0  0  0  0  0  0  0  0  0  0  0  0
    0.5849    6.2362   -2.4531 H   0  0  0  0  0  0  0  0  0  0  0  0
   -1.5078    8.3625   -3.1500 H   0  0  0  0  0  0  0  0  0  0  0  0
   -1.8014    6.9604   -2.1395 H   0  0  0  0  0  0  0  0  0  0  0  0
   -1.0891    6.9062   -4.8963 H   0  0  0  0  0  0  0  0  0  0  0  0
    0.2107    9.0179   -1.4476 H   0  0  0  0  0  0  0  0  0  0  0  0
    0.4657    6.5087   -0.1266 H   0  0  0  0  0  0  0  0  0  0  0  0
    2.5629    7.1861   -1.0334 H   0  0  0  0  0  0  0  0  0  0  0  0
    2.1321    9.9157   -0.3084 H   0  0  0  0  0  0  0  0  0  0  0  0
    2.5514    9.6867   -2.7347 H   0  0  0  0  0  0  0  0  0  0  0  0
    4.5837    7.7961   -2.1653 H   0  0  0  0  0  0  0  0  0  0  0  0
    1.8727   -4.9282   -1.8017 H   0  0  0  0  0  0  0  0  0  0  0  0
    0.6424   -3.5440    0.0216 H   0  0  0  0  0  0  0  0  0  0  0  0
    1.8361   -0.7656    0.2325 H   0  0  0  0  0  0  0  0  0  0  0  0
    0.4724   -1.3851    1.1506 H   0  0  0  0  0  0  0  0  0  0  0  0
    0.5556   -1.0261   -1.6691 H   0  0  0  0  0  0  0  0  0  0  0  0
    3.2504   -2.5932    1.1303 H   0  0  0  0  0  0  0  0  0  0  0  0
    1.1445   -4.1625    2.2396 H   0  0  0  0  0  0  0  0  0  0  0  0
    2.4047   -5.4465    0.6666 H   0  0  0  0  0  0  0  0  0  0  0  0
    4.8655   -4.3246    1.5634 H   0  0  0  0  0  0  0  0  0  0  0  0
    4.5318   -3.9086   -0.8150 H   0  0  0  0  0  0  0  0  0  0  0  0
    3.5432   -6.5480   -1.1656 H   0  0  0  0  0  0  0  0  0  0  0  0
  1 57  1  0  0  0  0
  1 58  1  0  0  0  0
  1 59  1  0  0  0  0
  2  1  1  1  0  0  0
  2  3  1  0  0  0  0
  2  8  1  0  0  0  0
  2 19  1  0  0  0  0
  3  4  1  0  0  0  0
  3 60  1  0  0  0  0
  3 61  1  0  0  0  0
  4  5  1  0  0  0  0
  4 62  1  0  0  0  0
  4 63  1  0  0  0  0
  5  6  1  0  0  0  0
  5 64  1  0  0  0  0
  5 65  1  0  0  0  0
  6  7  1  0  0  0  0
  6  8  1  0  0  0  0
  6 43  1  1  0  0  0
  7 66  1  0  0  0  0
  7 67  1  0  0  0  0
  7 68  1  0  0  0  0
  8  9  1  0  0  0  0
  8 69  1  6  0  0  0
  9 10  1  0  0  0  0
  9 70  1  0  0  0  0
  9 71  1  0  0  0  0
 10 72  1  0  0  0  0
 10 73  1  0  0  0  0
 11 10  1  6  0  0  0
 11 12  1  0  0  0  0
 11 16  1  0  0  0  0
 11 19  1  0  0  0  0
 12 13  1  0  0  0  0
 12 74  1  0  0  0  0
 12 75  1  0  0  0  0
 13 14  2  0  0  0  0
 13 15  1  0  0  0  0
 14 76  1  0  0  0  0
 14 77  1  0  0  0  0
 15 16  1  0  0  0  0
 15 17  1  0  0  0  0
 15 20  1  6  0  0  0
 16 78  1  0  0  0  0
 16 79  1  0  0  0  0
 17 18  1  0  0  0  0
 17 80  1  0  0  0  0
 17 81  1  0  0  0  0
 18 19  1  0  0  0  0
 18 82  1  0  0  0  0
 18 83  1  0  0  0  0
 19 84  1  6  0  0  0
 20 21  1  0  0  0  0
 21 22  1  0  0  0  0
 21 30  1  0  0  0  0
 21 85  1  6  0  0  0
 22 23  1  0  0  0  0
 23 24  1  0  0  0  0
 23 26  1  0  0  0  0
 23 86  1  6  0  0  0
 24 25  1  0  0  0  0
 24 87  1  0  0  0  0
 24 88  1  0  0  0  0
 25 89  1  0  0  0  0
 26 27  1  0  0  0  0
 26 28  1  0  0  0  0
 26 90  1  1  0  0  0
 27 91  1  0  0  0  0
 28 29  1  0  0  0  0
 28 30  1  0  0  0  0
 28 92  1  6  0  0  0
 29 93  1  0  0  0  0
 30 31  1  0  0  0  0
 30 94  1  6  0  0  0
 31 32  1  0  0  0  0
 32 33  1  0  0  0  0
 32 41  1  0  0  0  0
 32 95  1  1  0  0  0
 33 34  1  0  0  0  0
 34 35  1  0  0  0  0
 34 37  1  0  0  0  0
 34 96  1  1  0  0  0
 35 36  1  0  0  0  0
 35 97  1  0  0  0  0
 35 98  1  0  0  0  0
 36 99  1  0  0  0  0
 37 38  1  0  0  0  0
 37 39  1  0  0  0  0
 37100  1  6  0  0  0
 38101  1  0  0  0  0
 39 40  1  0  0  0  0
 39 41  1  0  0  0  0
 39102  1  1  0  0  0
 40103  1  0  0  0  0
 41 42  1  0  0  0  0
 41104  1  6  0  0  0
 42105  1  0  0  0  0
 43 44  2  0  0  0  0
 43 45  1  0  0  0  0
 45 46  1  0  0  0  0
 46 47  1  0  0  0  0
 46 55  1  0  0  0  0
 46106  1  6  0  0  0
 47 48  1  0  0  0  0
 48 49  1  0  0  0  0
 48 51  1  0  0  0  0
 48107  1  1  0  0  0
 49 50  1  0  0  0  0
 49108  1  0  0  0  0
 49109  1  0  0  0  0
 50110  1  0  0  0  0
 51 52  1  0  0  0  0
 51 53  1  0  0  0  0
 51111  1  1  0  0  0
 52112  1  0  0  0  0
 53 54  1  0  0  0  0
 53 55  1  0  0  0  0
 53113  1  1  0  0  0
 54114  1  0  0  0  0
 55 56  1  0  0  0  0
 55115  1  6  0  0  0
 56116  1  0  0  0  0
M  END
$$$$
Row18
 OpenBabel08252322322D

116122  0  0  1  0  0  0  0  0999 V2000
    1.8257    0.7777    0.0000 C   0  0  0  0  0  0  0  0  0  0  0  0
    2.0661   -0.0115    0.0000 C   0  0  1  0  0  0  0  0  0  0  0  0
    2.6242    0.5960    0.0000 C   0  0  0  0  0  0  0  0  0  0  0  0
    3.4294    0.4164    0.0000 C   0  0  0  0  0  0  0  0  0  0  0  0
    3.6765   -0.3707    0.0000 C   0  0  0  0  0  0  0  0  0  0  0  0
    3.1184   -0.9782    0.0000 C   0  0  2  0  0  0  0  0  0  0  0  0
    3.8136   -1.4224    0.0000 C   0  0  0  0  0  0  0  0  0  0  0  0
    2.3132   -0.7987    0.0000 C   0  0  3  0  0  0  0  0  0  0  0  0
    1.7596   -1.4229    0.0000 C   0  0  0  0  0  0  0  0  0  0  0  0
    0.9506   -1.2543    0.0000 C   0  0  0  0  0  0  0  0  0  0  0  0
    0.6469   -0.4671    0.0000 C   0  0  1  0  0  0  0  0  0  0  0  0
   -0.1637   -0.8483    0.0000 C   0  0  0  0  0  0  0  0  0  0  0  0
   -0.7854   -0.2403    0.0000 C   0  0  0  0  0  0  0  0  0  0  0  0
   -1.5987   -0.3788    0.0000 C   0  0  0  0  0  0  0  0  0  0  0  0
   -0.4028    0.5335    0.0000 C   0  0  2  0  0  0  0  0  0  0  0  0
    0.1726    0.0666    0.0000 C   0  0  0  0  0  0  0  0  0  0  0  0
    0.1586    1.1914    0.0000 C   0  0  0  0  0  0  0  0  0  0  0  0
    1.0038    1.0309    0.0000 C   0  0  0  0  0  0  0  0  0  0  0  0
    1.2474    0.1857    0.0000 C   0  0  3  0  0  0  0  0  0  0  0  0
   -1.0916    0.9875    0.0000 O   0  0  0  0  0  0  0  0  0  0  0  0
   -1.0428    1.8111    0.0000 C   0  0  2  0  0  0  0  0  0  0  0  0
   -0.3051    2.1806    0.0000 O   0  0  0  0  0  0  0  0  0  0  0  0
   -0.2563    3.0041    0.0000 C   0  0  1  0  0  0  0  0  0  0  0  0
    0.4813    3.3736    0.0000 C   0  0  0  0  0  0  0  0  0  0  0  0
    1.1701    2.9196    0.0000 O   0  0  0  0  0  0  0  0  0  0  0  0
   -0.9451    3.4582    0.0000 C   0  0  1  0  0  0  0  0  0  0  0  0
   -0.8963    4.2817    0.0000 O   0  0  0  0  0  0  0  0  0  0  0  0
   -1.6828    3.0887    0.0000 C   0  0  2  0  0  0  0  0  0  0  0  0
   -2.3716    3.5427    0.0000 O   0  0  0  0  0  0  0  0  0  0  0  0
   -1.7316    2.2651    0.0000 C   0  0  2  0  0  0  0  0  0  0  0  0
   -2.4692    1.8956    0.0000 O   0  0  0  0  0  0  0  0  0  0  0  0
   -3.1580    2.3497    0.0000 C   0  0  2  0  0  0  0  0  0  0  0  0
   -3.1092    3.1732    0.0000 O   0  0  0  0  0  0  0  0  0  0  0  0
   -3.7980    3.6273    0.0000 C   0  0  1  0  0  0  0  0  0  0  0  0
   -3.7492    4.4508    0.0000 C   0  0  0  0  0  0  0  0  0  0  0  0
   -3.0116    4.8203    0.0000 O   0  0  0  0  0  0  0  0  0  0  0  0
   -4.5356    3.2578    0.0000 C   0  0  1  0  0  0  0  0  0  0  0  0
   -5.2245    3.7118    0.0000 O   0  0  0  0  0  0  0  0  0  0  0  0
   -4.5844    2.4342    0.0000 C   0  0  2  0  0  0  0  0  0  0  0  0
   -5.3221    2.0647    0.0000 O   0  0  0  0  0  0  0  0  0  0  0  0
   -3.8956    1.9802    0.0000 C   0  0  2  0  0  0  0  0  0  0  0  0
   -3.9444    1.1566    0.0000 O   0  0  0  0  0  0  0  0  0  0  0  0
    2.8017   -1.7400    0.0000 C   0  0  0  0  0  0  0  0  0  0  0  0
    1.9836   -1.8467    0.0000 O   0  0  0  0  0  0  0  0  0  0  0  0
    3.3031   -2.3952    0.0000 O   0  0  0  0  0  0  0  0  0  0  0  0
    2.9864   -3.1570    0.0000 C   0  0  2  0  0  0  0  0  0  0  0  0
    3.4878   -3.8122    0.0000 O   0  0  0  0  0  0  0  0  0  0  0  0
    3.1711   -4.5740    0.0000 C   0  0  1  0  0  0  0  0  0  0  0  0
    3.6725   -5.2291    0.0000 C   0  0  0  0  0  0  0  0  0  0  0  0
    4.4906   -5.1225    0.0000 O   0  0  0  0  0  0  0  0  0  0  0  0
    2.3531   -4.6806    0.0000 C   0  0  1  0  0  0  0  0  0  0  0  0
    2.0364   -5.4424    0.0000 O   0  0  0  0  0  0  0  0  0  0  0  0
    1.8517   -4.0254    0.0000 C   0  0  2  0  0  0  0  0  0  0  0  0
    1.0336   -4.1321    0.0000 O   0  0  0  0  0  0  0  0  0  0  0  0
    2.1683   -3.2636    0.0000 C   0  0  2  0  0  0  0  0  0  0  0  0
    1.6669   -2.6085    0.0000 O   0  0  0  0  0  0  0  0  0  0  0  0
    2.5562    1.5595    0.0000 H   0  0  0  0  0  0  0  0  0  0  0  0
    0.7834    1.0195    0.0000 H   0  0  0  0  0  0  0  0  0  0  0  0
    1.5139    1.8013    0.0000 H   0  0  0  0  0  0  0  0  0  0  0  0
    2.3038    1.6169    0.0000 H   0  0  0  0  0  0  0  0  0  0  0  0
    3.3481    1.3840    0.0000 H   0  0  0  0  0  0  0  0  0  0  0  0
    4.1533    1.2044    0.0000 H   0  0  0  0  0  0  0  0  0  0  0  0
    4.4737    0.1835    0.0000 H   0  0  0  0  0  0  0  0  0  0  0  0
    4.7208   -0.6036    0.0000 H   0  0  0  0  0  0  0  0  0  0  0  0
    3.9970   -1.3916    0.0000 H   0  0  0  0  0  0  0  0  0  0  0  0
    3.7655   -2.4913    0.0000 H   0  0  0  0  0  0  0  0  0  0  0  0
    4.7634   -0.9296    0.0000 H   0  0  0  0  0  0  0  0  0  0  0  0
    4.7153   -1.9985    0.0000 H   0  0  0  0  0  0  0  0  0  0  0  0
    3.0370   -0.0107    0.0000 H   0  0  0  0  0  0  0  0  0  0  0  0
    2.0961   -2.4386    0.0000 H   0  0  0  0  0  0  0  0  0  0  0  0
    1.0475   -2.2215    0.0000 H   0  0  0  0  0  0  0  0  0  0  0  0
    0.2580   -2.0699    0.0000 H   0  0  0  0  0  0  0  0  0  0  0  0
   -0.1044   -1.0755    0.0000 H   0  0  0  0  0  0  0  0  0  0  0  0
   -0.3419   -1.9034    0.0000 H   0  0  0  0  0  0  0  0  0  0  0  0
   -1.1812   -1.1794    0.0000 H   0  0  0  0  0  0  0  0  0  0  0  0
   -2.2574    0.4156    0.0000 H   0  0  0  0  0  0  0  0  0  0  0  0
   -1.9573   -1.3465    0.0000 H   0  0  0  0  0  0  0  0  0  0  0  0
    0.9120    0.8400    0.0000 H   0  0  0  0  0  0  0  0  0  0  0  0
    0.1052    1.1345    0.0000 H   0  0  0  0  0  0  0  0  0  0  0  0
   -0.1966    2.2007    0.0000 H   0  0  0  0  0  0  0  0  0  0  0  0
    0.8561    2.0028    0.0000 H   0  0  0  0  0  0  0  0  0  0  0  0
    1.7244    1.8218    0.0000 H   0  0  0  0  0  0  0  0  0  0  0  0
    2.0458    0.7878    0.0000 H   0  0  0  0  0  0  0  0  0  0  0  0
    1.5589   -0.8380    0.0000 H   0  0  0  0  0  0  0  0  0  0  0  0
   -0.1494    1.2222    0.0000 H   0  0  0  0  0  0  0  0  0  0  0  0
    0.6371    2.4152    0.0000 H   0  0  0  0  0  0  0  0  0  0  0  0
    0.5446    4.4417    0.0000 H   0  0  0  0  0  0  0  0  0  0  0  0
    1.4380    3.8529    0.0000 H   0  0  0  0  0  0  0  0  0  0  0  0
    1.1127    1.9513    0.0000 H   0  0  0  0  0  0  0  0  0  0  0  0
    0.0116    3.9374    0.0000 H   0  0  0  0  0  0  0  0  0  0  0  0
   -0.0290    4.7162    0.0000 H   0  0  0  0  0  0  0  0  0  0  0  0
   -1.6195    4.1568    0.0000 H   0  0  0  0  0  0  0  0  0  0  0  0
   -2.3142    4.5110    0.0000 H   0  0  0  0  0  0  0  0  0  0  0  0
   -1.7949    1.1970    0.0000 H   0  0  0  0  0  0  0  0  0  0  0  0
   -2.2013    2.8289    0.0000 H   0  0  0  0  0  0  0  0  0  0  0  0
   -2.8413    4.1065    0.0000 H   0  0  0  0  0  0  0  0  0  0  0  0
   -4.6426    5.0397    0.0000 H   0  0  0  0  0  0  0  0  0  0  0  0
   -3.6859    5.5189    0.0000 H   0  0  0  0  0  0  0  0  0  0  0  0
   -2.2017    4.2865    0.0000 H   0  0  0  0  0  0  0  0  0  0  0  0
   -4.4724    4.3259    0.0000 H   0  0  0  0  0  0  0  0  0  0  0  0
   -5.1672    4.6801    0.0000 H   0  0  0  0  0  0  0  0  0  0  0  0
   -5.4778    3.0231    0.0000 H   0  0  0  0  0  0  0  0  0  0  0  0
   -6.1320    2.5986    0.0000 H   0  0  0  0  0  0  0  0  0  0  0  0
   -3.0022    1.3913    0.0000 H   0  0  0  0  0  0  0  0  0  0  0  0
   -4.8117    0.7221    0.0000 H   0  0  0  0  0  0  0  0  0  0  0  0
    4.0474   -3.0187    0.0000 H   0  0  0  0  0  0  0  0  0  0  0  0
    4.2321   -4.4357    0.0000 H   0  0  0  0  0  0  0  0  0  0  0  0
    3.2618   -6.2171    0.0000 H   0  0  0  0  0  0  0  0  0  0  0  0
    4.3228   -6.0788    0.0000 H   0  0  0  0  0  0  0  0  0  0  0  0
    5.0801   -5.8928    0.0000 H   0  0  0  0  0  0  0  0  0  0  0  0
    3.0034   -5.5303    0.0000 H   0  0  0  0  0  0  0  0  0  0  0  0
    1.0745   -5.5678    0.0000 H   0  0  0  0  0  0  0  0  0  0  0  0
    1.4410   -5.0134    0.0000 H   0  0  0  0  0  0  0  0  0  0  0  0
    0.4440   -3.3618    0.0000 H   0  0  0  0  0  0  0  0  0  0  0  0
    2.5790   -2.2756    0.0000 H   0  0  0  0  0  0  0  0  0  0  0  0
    2.0392   -1.7128    0.0000 H   0  0  0  0  0  0  0  0  0  0  0  0
  1 57  1  0  0  0  0
  1 58  1  0  0  0  0
  1 59  1  0  0  0  0
  2  1  1  1  0  0  0
  2  3  1  0  0  0  0
  2  8  1  0  0  0  0
  2 19  1  0  0  0  0
  3  4  1  0  0  0  0
  3 60  1  0  0  0  0
  3 61  1  0  0  0  0
  4  5  1  0  0  0  0
  4 62  1  0  0  0  0
  4 63  1  0  0  0  0
  5 64  1  0  0  0  0
  5 65  1  0  0  0  0
  6  5  1  0  0  0  0
  6  7  1  0  0  0  0
  6  8  1  0  0  0  0
  6 43  1  1  0  0  0
  7 66  1  0  0  0  0
  7 67  1  0  0  0  0
  7 68  1  0  0  0  0
  8  9  1  0  0  0  0
  8 69  1  0  0  0  0
  9 10  1  0  0  0  0
  9 70  1  0  0  0  0
  9 71  1  0  0  0  0
 10 72  1  0  0  0  0
 10 73  1  0  0  0  0
 11 10  1  1  0  0  0
 11 12  1  0  0  0  0
 11 16  1  0  0  0  0
 11 19  1  0  0  0  0
 12 13  1  0  0  0  0
 12 74  1  0  0  0  0
 12 75  1  0  0  0  0
 13 14  2  0  0  0  0
 14 76  1  0  0  0  0
 14 77  1  0  0  0  0
 15 13  1  0  0  0  0
 15 16  1  0  0  0  0
 15 17  1  0  0  0  0
 15 20  1  6  0  0  0
 16 78  1  0  0  0  0
 16 79  1  0  0  0  0
 17 18  1  0  0  0  0
 17 80  1  0  0  0  0
 17 81  1  0  0  0  0
 18 19  1  0  0  0  0
 18 82  1  0  0  0  0
 18 83  1  0  0  0  0
 19 84  1  0  0  0  0
 21 20  1  0  0  0  0
 21 22  1  0  0  0  0
 21 85  1  6  0  0  0
 23 22  1  0  0  0  0
 23 24  1  0  0  0  0
 23 86  1  1  0  0  0
 24 25  1  0  0  0  0
 24 87  1  0  0  0  0
 24 88  1  0  0  0  0
 25 89  1  0  0  0  0
 26 23  1  0  0  0  0
 26 27  1  0  0  0  0
 26 28  1  0  0  0  0
 26 90  1  1  0  0  0
 27 91  1  0  0  0  0
 28 29  1  0  0  0  0
 28 30  1  0  0  0  0
 28 92  1  6  0  0  0
 29 93  1  0  0  0  0
 30 21  1  0  0  0  0
 30 31  1  0  0  0  0
 30 94  1  6  0  0  0
 32 31  1  0  0  0  0
 32 33  1  0  0  0  0
 32 95  1  6  0  0  0
 34 33  1  0  0  0  0
 34 35  1  0  0  0  0
 34 96  1  1  0  0  0
 35 36  1  0  0  0  0
 35 97  1  0  0  0  0
 35 98  1  0  0  0  0
 36 99  1  0  0  0  0
 37 34  1  0  0  0  0
 37 38  1  0  0  0  0
 37 39  1  0  0  0  0
 37100  1  1  0  0  0
 38101  1  0  0  0  0
 39 40  1  0  0  0  0
 39 41  1  0  0  0  0
 39102  1  6  0  0  0
 40103  1  0  0  0  0
 41 32  1  0  0  0  0
 41 42  1  0  0  0  0
 41104  1  6  0  0  0
 42105  1  0  0  0  0
 43 44  2  0  0  0  0
 43 45  1  0  0  0  0
 46 45  1  0  0  0  0
 46 47  1  0  0  0  0
 46106  1  1  0  0  0
 48 47  1  0  0  0  0
 48 49  1  0  0  0  0
 48107  1  6  0  0  0
 49 50  1  0  0  0  0
 49108  1  0  0  0  0
 49109  1  0  0  0  0
 50110  1  0  0  0  0
 51 48  1  0  0  0  0
 51 52  1  0  0  0  0
 51 53  1  0  0  0  0
 51111  1  6  0  0  0
 52112  1  0  0  0  0
 53 54  1  0  0  0  0
 53 55  1  0  0  0  0
 53113  1  1  0  0  0
 54114  1  0  0  0  0
 55 46  1  0  0  0  0
 55 56  1  0  0  0  0
 55115  1  1  0  0  0
 56116  1  0  0  0  0
M  END
$$$$
Row19
 OpenBabel08252322322D

116122  0  0  1  0  0  0  0  0999 V2000
    1.8257    0.7777    0.0000 C   0  0  0  0  0  0  0  0  0  0  0  0
    2.0661   -0.0115    0.0000 C   0  0  1  0  0  0  0  0  0  0  0  0
    2.6242    0.5960    0.0000 C   0  0  0  0  0  0  0  0  0  0  0  0
    3.4294    0.4164    0.0000 C   0  0  0  0  0  0  0  0  0  0  0  0
    3.6765   -0.3707    0.0000 C   0  0  0  0  0  0  0  0  0  0  0  0
    3.1184   -0.9782    0.0000 C   0  0  2  0  0  0  0  0  0  0  0  0
    3.8136   -1.4224    0.0000 C   0  0  0  0  0  0  0  0  0  0  0  0
    2.3132   -0.7987    0.0000 C   0  0  3  0  0  0  0  0  0  0  0  0
    1.7596   -1.4229    0.0000 C   0  0  0  0  0  0  0  0  0  0  0  0
    0.9506   -1.2543    0.0000 C   0  0  0  0  0  0  0  0  0  0  0  0
    0.6469   -0.4671    0.0000 C   0  0  1  0  0  0  0  0  0  0  0  0
   -0.1637   -0.8483    0.0000 C   0  0  0  0  0  0  0  0  0  0  0  0
   -0.7854   -0.2403    0.0000 C   0  0  0  0  0  0  0  0  0  0  0  0
   -1.5987   -0.3788    0.0000 C   0  0  0  0  0  0  0  0  0  0  0  0
   -0.4028    0.5335    0.0000 C   0  0  2  0  0  0  0  0  0  0  0  0
    0.1726    0.0666    0.0000 C   0  0  0  0  0  0  0  0  0  0  0  0
    0.1586    1.1914    0.0000 C   0  0  0  0  0  0  0  0  0  0  0  0
    1.0038    1.0309    0.0000 C   0  0  0  0  0  0  0  0  0  0  0  0
    1.2474    0.1857    0.0000 C   0  0  3  0  0  0  0  0  0  0  0  0
   -1.0916    0.9875    0.0000 O   0  0  0  0  0  0  0  0  0  0  0  0
   -1.0428    1.8111    0.0000 C   0  0  2  0  0  0  0  0  0  0  0  0
   -0.3051    2.1806    0.0000 O   0  0  0  0  0  0  0  0  0  0  0  0
   -0.2563    3.0041    0.0000 C   0  0  2  0  0  0  0  0  0  0  0  0
    0.4813    3.3736    0.0000 C   0  0  0  0  0  0  0  0  0  0  0  0
    1.1701    2.9196    0.0000 O   0  0  0  0  0  0  0  0  0  0  0  0
   -0.9451    3.4582    0.0000 C   0  0  1  0  0  0  0  0  0  0  0  0
   -0.8963    4.2817    0.0000 O   0  0  0  0  0  0  0  0  0  0  0  0
   -1.6828    3.0887    0.0000 C   0  0  2  0  0  0  0  0  0  0  0  0
   -2.3716    3.5427    0.0000 O   0  0  0  0  0  0  0  0  0  0  0  0
   -1.7316    2.2651    0.0000 C   0  0  2  0  0  0  0  0  0  0  0  0
   -2.4692    1.8956    0.0000 O   0  0  0  0  0  0  0  0  0  0  0  0
   -3.1580    2.3497    0.0000 C   0  0  2  0  0  0  0  0  0  0  0  0
   -3.1092    3.1732    0.0000 O   0  0  0  0  0  0  0  0  0  0  0  0
   -3.7980    3.6273    0.0000 C   0  0  2  0  0  0  0  0  0  0  0  0
   -3.7492    4.4508    0.0000 C   0  0  0  0  0  0  0  0  0  0  0  0
   -3.0116    4.8203    0.0000 O   0  0  0  0  0  0  0  0  0  0  0  0
   -4.5356    3.2578    0.0000 C   0  0  1  0  0  0  0  0  0  0  0  0
   -5.2245    3.7118    0.0000 O   0  0  0  0  0  0  0  0  0  0  0  0
   -4.5844    2.4342    0.0000 C   0  0  2  0  0  0  0  0  0  0  0  0
   -5.3221    2.0647    0.0000 O   0  0  0  0  0  0  0  0  0  0  0  0
   -3.8956    1.9802    0.0000 C   0  0  1  0  0  0  0  0  0  0  0  0
   -3.9444    1.1566    0.0000 O   0  0  0  0  0  0  0  0  0  0  0  0
    2.8017   -1.7400    0.0000 C   0  0  0  0  0  0  0  0  0  0  0  0
    1.9836   -1.8467    0.0000 O   0  0  0  0  0  0  0  0  0  0  0  0
    3.3031   -2.3952    0.0000 O   0  0  0  0  0  0  0  0  0  0  0  0
    2.9864   -3.1570    0.0000 C   0  0  2  0  0  0  0  0  0  0  0  0
    3.4878   -3.8122    0.0000 O   0  0  0  0  0  0  0  0  0  0  0  0
    3.1711   -4.5740    0.0000 C   0  0  2  0  0  0  0  0  0  0  0  0
    3.6725   -5.2291    0.0000 C   0  0  0  0  0  0  0  0  0  0  0  0
    4.4906   -5.1225    0.0000 O   0  0  0  0  0  0  0  0  0  0  0  0
    2.3531   -4.6806    0.0000 C   0  0  1  0  0  0  0  0  0  0  0  0
    2.0364   -5.4424    0.0000 O   0  0  0  0  0  0  0  0  0  0  0  0
    1.8517   -4.0254    0.0000 C   0  0  2  0  0  0  0  0  0  0  0  0
    1.0336   -4.1321    0.0000 O   0  0  0  0  0  0  0  0  0  0  0  0
    2.1683   -3.2636    0.0000 C   0  0  1  0  0  0  0  0  0  0  0  0
    1.6669   -2.6085    0.0000 O   0  0  0  0  0  0  0  0  0  0  0  0
    2.5562    1.5595    0.0000 H   0  0  0  0  0  0  0  0  0  0  0  0
    0.7834    1.0195    0.0000 H   0  0  0  0  0  0  0  0  0  0  0  0
    1.5139    1.8013    0.0000 H   0  0  0  0  0  0  0  0  0  0  0  0
    2.3038    1.6169    0.0000 H   0  0  0  0  0  0  0  0  0  0  0  0
    3.3481    1.3840    0.0000 H   0  0  0  0  0  0  0  0  0  0  0  0
    4.1533    1.2044    0.0000 H   0  0  0  0  0  0  0  0  0  0  0  0
    4.4737    0.1835    0.0000 H   0  0  0  0  0  0  0  0  0  0  0  0
    4.7208   -0.6036    0.0000 H   0  0  0  0  0  0  0  0  0  0  0  0
    3.9970   -1.3916    0.0000 H   0  0  0  0  0  0  0  0  0  0  0  0
    3.7655   -2.4913    0.0000 H   0  0  0  0  0  0  0  0  0  0  0  0
    4.7634   -0.9296    0.0000 H   0  0  0  0  0  0  0  0  0  0  0  0
    4.7153   -1.9985    0.0000 H   0  0  0  0  0  0  0  0  0  0  0  0
    3.0370   -0.0107    0.0000 H   0  0  0  0  0  0  0  0  0  0  0  0
    2.0961   -2.4386    0.0000 H   0  0  0  0  0  0  0  0  0  0  0  0
    1.0475   -2.2215    0.0000 H   0  0  0  0  0  0  0  0  0  0  0  0
    0.2580   -2.0699    0.0000 H   0  0  0  0  0  0  0  0  0  0  0  0
   -0.1044   -1.0755    0.0000 H   0  0  0  0  0  0  0  0  0  0  0  0
   -0.3419   -1.9034    0.0000 H   0  0  0  0  0  0  0  0  0  0  0  0
   -1.1812   -1.1794    0.0000 H   0  0  0  0  0  0  0  0  0  0  0  0
   -2.2574    0.4156    0.0000 H   0  0  0  0  0  0  0  0  0  0  0  0
   -1.9573   -1.3465    0.0000 H   0  0  0  0  0  0  0  0  0  0  0  0
    0.9120    0.8400    0.0000 H   0  0  0  0  0  0  0  0  0  0  0  0
    0.1052    1.1345    0.0000 H   0  0  0  0  0  0  0  0  0  0  0  0
   -0.1966    2.2007    0.0000 H   0  0  0  0  0  0  0  0  0  0  0  0
    0.8561    2.0028    0.0000 H   0  0  0  0  0  0  0  0  0  0  0  0
    1.7244    1.8218    0.0000 H   0  0  0  0  0  0  0  0  0  0  0  0
    2.0458    0.7878    0.0000 H   0  0  0  0  0  0  0  0  0  0  0  0
    1.5589   -0.8380    0.0000 H   0  0  0  0  0  0  0  0  0  0  0  0
   -0.1494    1.2222    0.0000 H   0  0  0  0  0  0  0  0  0  0  0  0
    0.6371    2.4152    0.0000 H   0  0  0  0  0  0  0  0  0  0  0  0
    0.5446    4.4417    0.0000 H   0  0  0  0  0  0  0  0  0  0  0  0
    1.4380    3.8529    0.0000 H   0  0  0  0  0  0  0  0  0  0  0  0
    1.1127    1.9513    0.0000 H   0  0  0  0  0  0  0  0  0  0  0  0
    0.0116    3.9374    0.0000 H   0  0  0  0  0  0  0  0  0  0  0  0
   -0.0290    4.7162    0.0000 H   0  0  0  0  0  0  0  0  0  0  0  0
   -1.6195    4.1568    0.0000 H   0  0  0  0  0  0  0  0  0  0  0  0
   -2.3142    4.5110    0.0000 H   0  0  0  0  0  0  0  0  0  0  0  0
   -1.7949    1.1970    0.0000 H   0  0  0  0  0  0  0  0  0  0  0  0
   -2.2013    2.8289    0.0000 H   0  0  0  0  0  0  0  0  0  0  0  0
   -2.8413    4.1065    0.0000 H   0  0  0  0  0  0  0  0  0  0  0  0
   -4.6426    5.0397    0.0000 H   0  0  0  0  0  0  0  0  0  0  0  0
   -3.6859    5.5189    0.0000 H   0  0  0  0  0  0  0  0  0  0  0  0
   -2.2017    4.2865    0.0000 H   0  0  0  0  0  0  0  0  0  0  0  0
   -4.4724    4.3259    0.0000 H   0  0  0  0  0  0  0  0  0  0  0  0
   -5.1672    4.6801    0.0000 H   0  0  0  0  0  0  0  0  0  0  0  0
   -5.4778    3.0231    0.0000 H   0  0  0  0  0  0  0  0  0  0  0  0
   -6.1320    2.5986    0.0000 H   0  0  0  0  0  0  0  0  0  0  0  0
   -3.0022    1.3913    0.0000 H   0  0  0  0  0  0  0  0  0  0  0  0
   -4.8117    0.7221    0.0000 H   0  0  0  0  0  0  0  0  0  0  0  0
    4.0474   -3.0187    0.0000 H   0  0  0  0  0  0  0  0  0  0  0  0
    4.2321   -4.4357    0.0000 H   0  0  0  0  0  0  0  0  0  0  0  0
    3.2618   -6.2171    0.0000 H   0  0  0  0  0  0  0  0  0  0  0  0
    4.3228   -6.0788    0.0000 H   0  0  0  0  0  0  0  0  0  0  0  0
    5.0801   -5.8928    0.0000 H   0  0  0  0  0  0  0  0  0  0  0  0
    3.0034   -5.5303    0.0000 H   0  0  0  0  0  0  0  0  0  0  0  0
    1.0745   -5.5678    0.0000 H   0  0  0  0  0  0  0  0  0  0  0  0
    1.4410   -5.0134    0.0000 H   0  0  0  0  0  0  0  0  0  0  0  0
    0.4440   -3.3618    0.0000 H   0  0  0  0  0  0  0  0  0  0  0  0
    2.5790   -2.2756    0.0000 H   0  0  0  0  0  0  0  0  0  0  0  0
    2.0392   -1.7128    0.0000 H   0  0  0  0  0  0  0  0  0  0  0  0
  1 57  1  0  0  0  0
  1 58  1  0  0  0  0
  1 59  1  0  0  0  0
  2  1  1  1  0  0  0
  2  3  1  0  0  0  0
  2  8  1  0  0  0  0
  2 19  1  0  0  0  0
  3  4  1  0  0  0  0
  3 60  1  0  0  0  0
  3 61  1  0  0  0  0
  4  5  1  0  0  0  0
  4 62  1  0  0  0  0
  4 63  1  0  0  0  0
  5 64  1  0  0  0  0
  5 65  1  0  0  0  0
  6  5  1  0  0  0  0
  6  7  1  0  0  0  0
  6  8  1  0  0  0  0
  6 43  1  1  0  0  0
  7 66  1  0  0  0  0
  7 67  1  0  0  0  0
  7 68  1  0  0  0  0
  8  9  1  0  0  0  0
  8 69  1  0  0  0  0
  9 10  1  0  0  0  0
  9 70  1  0  0  0  0
  9 71  1  0  0  0  0
 10 72  1  0  0  0  0
 10 73  1  0  0  0  0
 11 10  1  1  0  0  0
 11 12  1  0  0  0  0
 11 16  1  0  0  0  0
 11 19  1  0  0  0  0
 12 13  1  0  0  0  0
 12 74  1  0  0  0  0
 12 75  1  0  0  0  0
 13 14  2  0  0  0  0
 14 76  1  0  0  0  0
 14 77  1  0  0  0  0
 15 13  1  0  0  0  0
 15 16  1  0  0  0  0
 15 17  1  0  0  0  0
 15 20  1  6  0  0  0
 16 78  1  0  0  0  0
 16 79  1  0  0  0  0
 17 18  1  0  0  0  0
 17 80  1  0  0  0  0
 17 81  1  0  0  0  0
 18 19  1  0  0  0  0
 18 82  1  0  0  0  0
 18 83  1  0  0  0  0
 19 84  1  0  0  0  0
 21 20  1  0  0  0  0
 21 22  1  0  0  0  0
 21 85  1  6  0  0  0
 23 22  1  0  0  0  0
 23 24  1  0  0  0  0
 23 86  1  6  0  0  0
 24 25  1  0  0  0  0
 24 87  1  0  0  0  0
 24 88  1  0  0  0  0
 25 89  1  0  0  0  0
 26 23  1  0  0  0  0
 26 27  1  0  0  0  0
 26 28  1  0  0  0  0
 26 90  1  1  0  0  0
 27 91  1  0  0  0  0
 28 29  1  0  0  0  0
 28 30  1  0  0  0  0
 28 92  1  6  0  0  0
 29 93  1  0  0  0  0
 30 21  1  0  0  0  0
 30 31  1  0  0  0  0
 30 94  1  6  0  0  0
 32 31  1  0  0  0  0
 32 33  1  0  0  0  0
 32 95  1  6  0  0  0
 34 33  1  0  0  0  0
 34 35  1  0  0  0  0
 34 96  1  6  0  0  0
 35 36  1  0  0  0  0
 35 97  1  0  0  0  0
 35 98  1  0  0  0  0
 36 99  1  0  0  0  0
 37 34  1  0  0  0  0
 37 38  1  0  0  0  0
 37 39  1  0  0  0  0
 37100  1  1  0  0  0
 38101  1  0  0  0  0
 39 40  1  0  0  0  0
 39 41  1  0  0  0  0
 39102  1  6  0  0  0
 40103  1  0  0  0  0
 41 32  1  0  0  0  0
 41 42  1  0  0  0  0
 41104  1  1  0  0  0
 42105  1  0  0  0  0
 43 44  2  0  0  0  0
 43 45  1  0  0  0  0
 46 45  1  0  0  0  0
 46 47  1  0  0  0  0
 46106  1  1  0  0  0
 48 47  1  0  0  0  0
 48 49  1  0  0  0  0
 48107  1  1  0  0  0
 49 50  1  0  0  0  0
 49108  1  0  0  0  0
 49109  1  0  0  0  0
 50110  1  0  0  0  0
 51 48  1  0  0  0  0
 51 52  1  0  0  0  0
 51 53  1  0  0  0  0
 51111  1  6  0  0  0
 52112  1  0  0  0  0
 53 54  1  0  0  0  0
 53 55  1  0  0  0  0
 53113  1  1  0  0  0
 54114  1  0  0  0  0
 55 46  1  0  0  0  0
 55 56  1  0  0  0  0
 55115  1  6  0  0  0
 56116  1  0  0  0  0
M  END
$$$$
Row20
 OpenBabel08252322323D

116122  0  0  1  0  0  0  0  0999 V2000
    3.3257   -1.2233   -2.3995 C   0  0  0  0  0  0  0  0  0  0  0  0
    3.7870   -0.5030   -3.7278 C   0  0  1  0  0  0  0  0  0  0  0  0
    5.3620   -0.6133   -3.7932 C   0  0  0  0  0  0  0  0  0  0  0  0
    5.9214   -2.0370   -4.0411 C   0  0  0  0  0  0  0  0  0  0  0  0
    5.3400   -2.6437   -5.3375 C   0  0  0  0  0  0  0  0  0  0  0  0
    3.7653   -2.6437   -5.4396 C   0  0  2  0  0  0  0  0  0  0  0  0
    3.4695   -2.9245   -6.9619 C   0  0  0  0  0  0  0  0  0  0  0  0
    3.1830   -1.2147   -5.0177 C   0  0  1  0  0  0  0  0  0  0  0  0
    1.6095   -1.1133   -5.0626 C   0  0  0  0  0  0  0  0  0  0  0  0
    0.9987    0.2081   -4.5151 C   0  0  0  0  0  0  0  0  0  0  0  0
    1.9959    1.4000   -4.5099 C   0  0  1  0  0  0  0  0  0  0  0  0
    2.2814    1.9701   -5.9449 C   0  0  0  0  0  0  0  0  0  0  0  0
    2.4572    3.3994   -5.7428 C   0  0  0  0  0  0  0  0  0  0  0  0
    2.6937    4.2486   -6.7567 C   0  0  0  0  0  0  0  0  0  0  0  0
    2.3331    3.7803   -4.3362 C   0  0  1  0  0  0  0  0  0  0  0  0
    1.3422    2.6713   -3.8917 C   0  0  0  0  0  0  0  0  0  0  0  0
    3.7182    3.5975   -3.6169 C   0  0  0  0  0  0  0  0  0  0  0  0
    4.3525    2.1821   -3.7867 C   0  0  0  0  0  0  0  0  0  0  0  0
    3.2889    1.0334   -3.6485 C   0  0  2  0  0  0  0  0  0  0  0  0
    1.8211    5.1379   -4.2057 O   0  0  0  0  0  0  0  0  0  0  0  0
    1.1928    5.5733   -2.9719 C   0  0  1  0  0  0  0  0  0  0  0  0
    2.0964    5.6913   -1.8499 O   0  0  0  0  0  0  0  0  0  0  0  0
    3.1141    6.7095   -1.9774 C   0  0  2  0  0  0  0  0  0  0  0  0
    4.0076    6.6746   -0.7141 C   0  0  0  0  0  0  0  0  0  0  0  0
    4.5621    5.3771   -0.5229 O   0  0  0  0  0  0  0  0  0  0  0  0
    2.4624    8.1065   -2.1936 C   0  0  1  0  0  0  0  0  0  0  0  0
    3.4626    9.0932   -2.4362 O   0  0  0  0  0  0  0  0  0  0  0  0
    1.4802    8.0573   -3.3915 C   0  0  2  0  0  0  0  0  0  0  0  0
    0.8273    9.3148   -3.5534 O   0  0  0  0  0  0  0  0  0  0  0  0
    0.4387    6.9150   -3.2322 C   0  0  2  0  0  0  0  0  0  0  0  0
   -0.5208    7.2708   -2.1952 O   0  0  0  0  0  0  0  0  0  0  0  0
   -1.7251    6.4698   -2.1063 C   0  0  2  0  0  0  0  0  0  0  0  0
   -2.3789    6.4379   -3.4500 O   0  0  0  0  0  0  0  0  0  0  0  0
   -3.6110    5.5995   -3.3858 C   0  0  2  0  0  0  0  0  0  0  0  0
   -4.2471    5.7235   -4.7935 C   0  0  0  0  0  0  0  0  0  0  0  0
   -3.3150    5.3236   -5.7943 O   0  0  0  0  0  0  0  0  0  0  0  0
   -4.6462    6.0172   -2.2576 C   0  0  1  0  0  0  0  0  0  0  0  0
   -5.6968    5.0555   -2.1568 O   0  0  0  0  0  0  0  0  0  0  0  0
   -3.9364    6.1750   -0.8802 C   0  0  2  0  0  0  0  0  0  0  0  0
   -4.8421    6.7247    0.0754 O   0  0  0  0  0  0  0  0  0  0  0  0
   -2.6509    7.0484   -0.9656 C   0  0  1  0  0  0  0  0  0  0  0  0
   -1.9724    7.0518    0.2886 O   0  0  0  0  0  0  0  0  0  0  0  0
    3.1516   -3.7622   -4.6394 C   0  0  0  0  0  0  0  0  0  0  0  0
    2.0206   -4.2203   -4.9365 O   0  0  0  0  0  0  0  0  0  0  0  0
    3.7948   -4.3130   -3.5664 O   0  0  0  0  0  0  0  0  0  0  0  0
    3.2028   -5.1090   -2.5289 C   0  0  2  0  0  0  0  0  0  0  0  0
    2.1875   -4.2865   -1.9095 O   0  0  0  0  0  0  0  0  0  0  0  0
    1.5128   -4.8575   -0.7702 C   0  0  2  0  0  0  0  0  0  0  0  0
    0.4775   -3.8211   -0.2672 C   0  0  0  0  0  0  0  0  0  0  0  0
   -0.4628   -3.5018   -1.2858 O   0  0  0  0  0  0  0  0  0  0  0  0
    2.5420   -5.2278    0.3365 C   0  0  1  0  0  0  0  0  0  0  0  0
    1.8936   -5.8897    1.4214 O   0  0  0  0  0  0  0  0  0  0  0  0
    3.6586   -6.1386   -0.2421 C   0  0  2  0  0  0  0  0  0  0  0  0
    4.6509   -6.3722    0.7556 O   0  0  0  0  0  0  0  0  0  0  0  0
    4.3013   -5.5047   -1.5049 C   0  0  1  0  0  0  0  0  0  0  0  0
    5.2346   -6.4034   -2.1018 O   0  0  0  0  0  0  0  0  0  0  0  0
    3.6408   -2.2456   -2.4202 H   0  0  0  0  0  0  0  0  0  0  0  0
    2.2594   -1.1803   -2.3223 H   0  0  0  0  0  0  0  0  0  0  0  0
    3.7645   -0.7318   -1.5564 H   0  0  0  0  0  0  0  0  0  0  0  0
    5.7560   -0.2617   -2.8626 H   0  0  0  0  0  0  0  0  0  0  0  0
    5.6626   -0.0285   -4.6373 H   0  0  0  0  0  0  0  0  0  0  0  0
    5.6608   -2.6640   -3.2141 H   0  0  0  0  0  0  0  0  0  0  0  0
    6.9846   -1.9720   -4.1427 H   0  0  0  0  0  0  0  0  0  0  0  0
    5.6750   -3.6576   -5.4063 H   0  0  0  0  0  0  0  0  0  0  0  0
    5.6865   -2.0204   -6.1352 H   0  0  0  0  0  0  0  0  0  0  0  0
    3.8947   -2.1440   -7.5577 H   0  0  0  0  0  0  0  0  0  0  0  0
    2.4117   -2.9576   -7.1195 H   0  0  0  0  0  0  0  0  0  0  0  0
    3.9013   -3.8626   -7.2420 H   0  0  0  0  0  0  0  0  0  0  0  0
    3.5761   -0.6240   -5.8186 H   0  0  0  0  0  0  0  0  0  0  0  0
    1.2121   -1.9220   -4.4856 H   0  0  0  0  0  0  0  0  0  0  0  0
    1.3464   -1.1465   -6.0992 H   0  0  0  0  0  0  0  0  0  0  0  0
    0.6697    0.0381   -3.5112 H   0  0  0  0  0  0  0  0  0  0  0  0
    0.1940    0.4755   -5.1677 H   0  0  0  0  0  0  0  0  0  0  0  0
    1.4558    1.7796   -6.5983 H   0  0  0  0  0  0  0  0  0  0  0  0
    3.1371    1.5160   -6.3994 H   0  0  0  0  0  0  0  0  0  0  0  0
    2.7664    3.8918   -7.7223 H   0  0  0  0  0  0  0  0  0  0  0  0
    2.8026    5.2577   -6.5699 H   0  0  0  0  0  0  0  0  0  0  0  0
    1.2864    2.6023   -2.8254 H   0  0  0  0  0  0  0  0  0  0  0  0
    0.3331    2.8381   -4.2059 H   0  0  0  0  0  0  0  0  0  0  0  0
    3.5785    3.7781   -2.5715 H   0  0  0  0  0  0  0  0  0  0  0  0
    4.3929    4.2907   -4.0743 H   0  0  0  0  0  0  0  0  0  0  0  0
    5.1030    2.0487   -3.0358 H   0  0  0  0  0  0  0  0  0  0  0  0
    4.7704    2.1257   -4.7701 H   0  0  0  0  0  0  0  0  0  0  0  0
    3.0213    1.0174   -2.6126 H   0  0  0  0  0  0  0  0  0  0  0  0
    0.5048    4.8060   -2.6840 H   0  0  0  0  0  0  0  0  0  0  0  0
    3.7251    6.5187   -2.8348 H   0  0  0  0  0  0  0  0  0  0  0  0
    3.4176    6.9333    0.1402 H   0  0  0  0  0  0  0  0  0  0  0  0
    4.8073    7.3743   -0.8401 H   0  0  0  0  0  0  0  0  0  0  0  0
    3.8459    4.7332   -0.4074 H   0  0  0  0  0  0  0  0  0  0  0  0
    1.9254    8.3683   -1.3059 H   0  0  0  0  0  0  0  0  0  0  0  0
    3.9549    8.8638   -3.2399 H   0  0  0  0  0  0  0  0  0  0  0  0
    2.0516    7.8510   -4.2723 H   0  0  0  0  0  0  0  0  0  0  0  0
    0.3055    9.5127   -2.7600 H   0  0  0  0  0  0  0  0  0  0  0  0
   -0.1317    6.7769   -4.1269 H   0  0  0  0  0  0  0  0  0  0  0  0
   -1.5078    5.4571   -1.8380 H   0  0  0  0  0  0  0  0  0  0  0  0
   -3.3488    4.5969   -3.1194 H   0  0  0  0  0  0  0  0  0  0  0  0
   -4.5328    6.7406   -4.9634 H   0  0  0  0  0  0  0  0  0  0  0  0
   -5.1064    5.0880   -4.8444 H   0  0  0  0  0  0  0  0  0  0  0  0
   -2.5326    5.8955   -5.7545 H   0  0  0  0  0  0  0  0  0  0  0  0
   -5.0669    6.9615   -2.5335 H   0  0  0  0  0  0  0  0  0  0  0  0
   -5.3248    4.1953   -1.9068 H   0  0  0  0  0  0  0  0  0  0  0  0
   -3.6305    5.1981   -0.5687 H   0  0  0  0  0  0  0  0  0  0  0  0
   -5.1165    7.6099   -0.2111 H   0  0  0  0  0  0  0  0  0  0  0  0
   -2.9093    8.0605   -1.1975 H   0  0  0  0  0  0  0  0  0  0  0  0
   -1.7252    6.1441    0.5250 H   0  0  0  0  0  0  0  0  0  0  0  0
    2.7692   -6.0108   -2.9078 H   0  0  0  0  0  0  0  0  0  0  0  0
    1.0087   -5.7622   -1.0391 H   0  0  0  0  0  0  0  0  0  0  0  0
    0.9903   -2.9293    0.0272 H   0  0  0  0  0  0  0  0  0  0  0  0
   -0.0501   -4.2426    0.5628 H   0  0  0  0  0  0  0  0  0  0  0  0
    0.0018   -3.1181   -2.0460 H   0  0  0  0  0  0  0  0  0  0  0  0
    2.9841   -4.3225    0.6969 H   0  0  0  0  0  0  0  0  0  0  0  0
    1.4896   -6.7122    1.1033 H   0  0  0  0  0  0  0  0  0  0  0  0
    3.2205   -7.0708   -0.5321 H   0  0  0  0  0  0  0  0  0  0  0  0
    5.0490   -5.5280    1.0196 H   0  0  0  0  0  0  0  0  0  0  0  0
    4.8276   -4.6219   -1.2072 H   0  0  0  0  0  0  0  0  0  0  0  0
    4.7741   -7.2111   -2.3784 H   0  0  0  0  0  0  0  0  0  0  0  0
  1 57  1  0  0  0  0
  1 58  1  0  0  0  0
  1 59  1  0  0  0  0
  2  1  1  1  0  0  0
  2  3  1  0  0  0  0
  2  8  1  0  0  0  0
  2 19  1  0  0  0  0
  3  4  1  0  0  0  0
  3 60  1  0  0  0  0
  3 61  1  0  0  0  0
  4  5  1  0  0  0  0
  4 62  1  0  0  0  0
  4 63  1  0  0  0  0
  5  6  1  0  0  0  0
  5 64  1  0  0  0  0
  5 65  1  0  0  0  0
  6  7  1  0  0  0  0
  6  8  1  0  0  0  0
  6 43  1  1  0  0  0
  7 66  1  0  0  0  0
  7 67  1  0  0  0  0
  7 68  1  0  0  0  0
  8  9  1  0  0  0  0
  8 69  1  6  0  0  0
  9 10  1  0  0  0  0
  9 70  1  0  0  0  0
  9 71  1  0  0  0  0
 10 72  1  0  0  0  0
 10 73  1  0  0  0  0
 11 10  1  6  0  0  0
 11 12  1  0  0  0  0
 11 16  1  0  0  0  0
 11 19  1  0  0  0  0
 12 13  1  0  0  0  0
 12 74  1  0  0  0  0
 12 75  1  0  0  0  0
 13 14  2  0  0  0  0
 13 15  1  0  0  0  0
 14 76  1  0  0  0  0
 14 77  1  0  0  0  0
 15 16  1  0  0  0  0
 15 17  1  0  0  0  0
 15 20  1  1  0  0  0
 16 78  1  0  0  0  0
 16 79  1  0  0  0  0
 17 18  1  0  0  0  0
 17 80  1  0  0  0  0
 17 81  1  0  0  0  0
 18 19  1  0  0  0  0
 18 82  1  0  0  0  0
 18 83  1  0  0  0  0
 19 84  1  1  0  0  0
 20 21  1  0  0  0  0
 21 22  1  0  0  0  0
 21 30  1  0  0  0  0
 21 85  1  1  0  0  0
 22 23  1  0  0  0  0
 23 24  1  0  0  0  0
 23 26  1  0  0  0  0
 23 86  1  6  0  0  0
 24 25  1  0  0  0  0
 24 87  1  0  0  0  0
 24 88  1  0  0  0  0
 25 89  1  0  0  0  0
 26 27  1  0  0  0  0
 26 28  1  0  0  0  0
 26 90  1  1  0  0  0
 27 91  1  0  0  0  0
 28 29  1  0  0  0  0
 28 30  1  0  0  0  0
 28 92  1  6  0  0  0
 29 93  1  0  0  0  0
 30 31  1  0  0  0  0
 30 94  1  6  0  0  0
 31 32  1  0  0  0  0
 32 33  1  0  0  0  0
 32 41  1  0  0  0  0
 32 95  1  1  0  0  0
 33 34  1  0  0  0  0
 34 35  1  0  0  0  0
 34 37  1  0  0  0  0
 34 96  1  1  0  0  0
 35 36  1  0  0  0  0
 35 97  1  0  0  0  0
 35 98  1  0  0  0  0
 36 99  1  0  0  0  0
 37 38  1  0  0  0  0
 37 39  1  0  0  0  0
 37100  1  6  0  0  0
 38101  1  0  0  0  0
 39 40  1  0  0  0  0
 39 41  1  0  0  0  0
 39102  1  1  0  0  0
 40103  1  0  0  0  0
 41 42  1  0  0  0  0
 41104  1  6  0  0  0
 42105  1  0  0  0  0
 43 44  2  0  0  0  0
 43 45  1  0  0  0  0
 45 46  1  0  0  0  0
 46 47  1  0  0  0  0
 46 55  1  0  0  0  0
 46106  1  6  0  0  0
 47 48  1  0  0  0  0
 48 49  1  0  0  0  0
 48 51  1  0  0  0  0
 48107  1  6  0  0  0
 49 50  1  0  0  0  0
 49108  1  0  0  0  0
 49109  1  0  0  0  0
 50110  1  0  0  0  0
 51 52  1  0  0  0  0
 51 53  1  0  0  0  0
 51111  1  1  0  0  0
 52112  1  0  0  0  0
 53 54  1  0  0  0  0
 53 55  1  0  0  0  0
 53113  1  6  0  0  0
 54114  1  0  0  0  0
 55 56  1  0  0  0  0
 55115  1  1  0  0  0
 56116  1  0  0  0  0
M  END
$$$$
Row21
 OpenBabel08252322322D

116122  0  0  1  0  0  0  0  0999 V2000
    1.8257    0.7777    0.0000 C   0  0  0  0  0  0  0  0  0  0  0  0
    2.0661   -0.0115    0.0000 C   0  0  1  0  0  0  0  0  0  0  0  0
    2.6242    0.5960    0.0000 C   0  0  0  0  0  0  0  0  0  0  0  0
    3.4294    0.4164    0.0000 C   0  0  0  0  0  0  0  0  0  0  0  0
    3.6765   -0.3707    0.0000 C   0  0  0  0  0  0  0  0  0  0  0  0
    3.1184   -0.9782    0.0000 C   0  0  3  0  0  0  0  0  0  0  0  0
    3.8136   -1.4224    0.0000 C   0  0  0  0  0  0  0  0  0  0  0  0
    2.3132   -0.7987    0.0000 C   0  0  3  0  0  0  0  0  0  0  0  0
    1.7596   -1.4229    0.0000 C   0  0  0  0  0  0  0  0  0  0  0  0
    0.9506   -1.2543    0.0000 C   0  0  0  0  0  0  0  0  0  0  0  0
    0.6469   -0.4671    0.0000 C   0  0  1  0  0  0  0  0  0  0  0  0
   -0.1637   -0.8483    0.0000 C   0  0  0  0  0  0  0  0  0  0  0  0
   -0.7854   -0.2403    0.0000 C   0  0  0  0  0  0  0  0  0  0  0  0
   -1.5987   -0.3788    0.0000 C   0  0  0  0  0  0  0  0  0  0  0  0
   -0.4028    0.5335    0.0000 C   0  0  2  0  0  0  0  0  0  0  0  0
    0.1726    0.0666    0.0000 C   0  0  0  0  0  0  0  0  0  0  0  0
    0.1586    1.1914    0.0000 C   0  0  0  0  0  0  0  0  0  0  0  0
    1.0038    1.0309    0.0000 C   0  0  0  0  0  0  0  0  0  0  0  0
    1.2474    0.1857    0.0000 C   0  0  3  0  0  0  0  0  0  0  0  0
   -1.0916    0.9875    0.0000 O   0  0  0  0  0  0  0  0  0  0  0  0
   -1.0428    1.8111    0.0000 C   0  0  2  0  0  0  0  0  0  0  0  0
   -0.3051    2.1806    0.0000 O   0  0  0  0  0  0  0  0  0  0  0  0
   -0.2563    3.0041    0.0000 C   0  0  2  0  0  0  0  0  0  0  0  0
    0.4813    3.3736    0.0000 C   0  0  0  0  0  0  0  0  0  0  0  0
    1.1701    2.9196    0.0000 O   0  0  0  0  0  0  0  0  0  0  0  0
   -0.9451    3.4582    0.0000 C   0  0  1  0  0  0  0  0  0  0  0  0
   -0.8963    4.2817    0.0000 O   0  0  0  0  0  0  0  0  0  0  0  0
   -1.6828    3.0887    0.0000 C   0  0  2  0  0  0  0  0  0  0  0  0
   -2.3716    3.5427    0.0000 O   0  0  0  0  0  0  0  0  0  0  0  0
   -1.7316    2.2651    0.0000 C   0  0  2  0  0  0  0  0  0  0  0  0
   -2.4692    1.8956    0.0000 O   0  0  0  0  0  0  0  0  0  0  0  0
   -3.1580    2.3497    0.0000 C   0  0  2  0  0  0  0  0  0  0  0  0
   -3.1092    3.1732    0.0000 O   0  0  0  0  0  0  0  0  0  0  0  0
   -3.7980    3.6273    0.0000 C   0  0  2  0  0  0  0  0  0  0  0  0
   -3.7492    4.4508    0.0000 C   0  0  0  0  0  0  0  0  0  0  0  0
   -3.0116    4.8203    0.0000 O   0  0  0  0  0  0  0  0  0  0  0  0
   -4.5356    3.2578    0.0000 C   0  0  1  0  0  0  0  0  0  0  0  0
   -5.2245    3.7118    0.0000 O   0  0  0  0  0  0  0  0  0  0  0  0
   -4.5844    2.4342    0.0000 C   0  0  2  0  0  0  0  0  0  0  0  0
   -5.3221    2.0647    0.0000 O   0  0  0  0  0  0  0  0  0  0  0  0
   -3.8956    1.9802    0.0000 C   0  0  1  0  0  0  0  0  0  0  0  0
   -3.9444    1.1566    0.0000 O   0  0  0  0  0  0  0  0  0  0  0  0
    2.8017   -1.7400    0.0000 C   0  0  0  0  0  0  0  0  0  0  0  0
    1.9836   -1.8467    0.0000 O   0  0  0  0  0  0  0  0  0  0  0  0
    3.3031   -2.3952    0.0000 O   0  0  0  0  0  0  0  0  0  0  0  0
    2.9864   -3.1570    0.0000 C   0  0  2  0  0  0  0  0  0  0  0  0
    3.4878   -3.8122    0.0000 O   0  0  0  0  0  0  0  0  0  0  0  0
    3.1711   -4.5740    0.0000 C   0  0  2  0  0  0  0  0  0  0  0  0
    3.6725   -5.2291    0.0000 C   0  0  0  0  0  0  0  0  0  0  0  0
    4.4906   -5.1225    0.0000 O   0  0  0  0  0  0  0  0  0  0  0  0
    2.3531   -4.6806    0.0000 C   0  0  1  0  0  0  0  0  0  0  0  0
    2.0364   -5.4424    0.0000 O   0  0  0  0  0  0  0  0  0  0  0  0
    1.8517   -4.0254    0.0000 C   0  0  2  0  0  0  0  0  0  0  0  0
    1.0336   -4.1321    0.0000 O   0  0  0  0  0  0  0  0  0  0  0  0
    2.1683   -3.2636    0.0000 C   0  0  1  0  0  0  0  0  0  0  0  0
    1.6669   -2.6085    0.0000 O   0  0  0  0  0  0  0  0  0  0  0  0
    2.5562    1.5595    0.0000 H   0  0  0  0  0  0  0  0  0  0  0  0
    0.7834    1.0195    0.0000 H   0  0  0  0  0  0  0  0  0  0  0  0
    1.5139    1.8013    0.0000 H   0  0  0  0  0  0  0  0  0  0  0  0
    2.3038    1.6169    0.0000 H   0  0  0  0  0  0  0  0  0  0  0  0
    3.3481    1.3840    0.0000 H   0  0  0  0  0  0  0  0  0  0  0  0
    4.1533    1.2044    0.0000 H   0  0  0  0  0  0  0  0  0  0  0  0
    4.4737    0.1835    0.0000 H   0  0  0  0  0  0  0  0  0  0  0  0
    4.7208   -0.6036    0.0000 H   0  0  0  0  0  0  0  0  0  0  0  0
    3.9970   -1.3916    0.0000 H   0  0  0  0  0  0  0  0  0  0  0  0
    3.7655   -2.4913    0.0000 H   0  0  0  0  0  0  0  0  0  0  0  0
    4.7634   -0.9296    0.0000 H   0  0  0  0  0  0  0  0  0  0  0  0
    4.7153   -1.9985    0.0000 H   0  0  0  0  0  0  0  0  0  0  0  0
    3.0370   -0.0107    0.0000 H   0  0  0  0  0  0  0  0  0  0  0  0
    2.0961   -2.4386    0.0000 H   0  0  0  0  0  0  0  0  0  0  0  0
    1.0475   -2.2215    0.0000 H   0  0  0  0  0  0  0  0  0  0  0  0
    0.2580   -2.0699    0.0000 H   0  0  0  0  0  0  0  0  0  0  0  0
   -0.1044   -1.0755    0.0000 H   0  0  0  0  0  0  0  0  0  0  0  0
   -0.3419   -1.9034    0.0000 H   0  0  0  0  0  0  0  0  0  0  0  0
   -1.1812   -1.1794    0.0000 H   0  0  0  0  0  0  0  0  0  0  0  0
   -2.2574    0.4156    0.0000 H   0  0  0  0  0  0  0  0  0  0  0  0
   -1.9573   -1.3465    0.0000 H   0  0  0  0  0  0  0  0  0  0  0  0
    0.9120    0.8400    0.0000 H   0  0  0  0  0  0  0  0  0  0  0  0
    0.1052    1.1345    0.0000 H   0  0  0  0  0  0  0  0  0  0  0  0
   -0.1966    2.2007    0.0000 H   0  0  0  0  0  0  0  0  0  0  0  0
    0.8561    2.0028    0.0000 H   0  0  0  0  0  0  0  0  0  0  0  0
    1.7244    1.8218    0.0000 H   0  0  0  0  0  0  0  0  0  0  0  0
    2.0458    0.7878    0.0000 H   0  0  0  0  0  0  0  0  0  0  0  0
    1.5589   -0.8380    0.0000 H   0  0  0  0  0  0  0  0  0  0  0  0
   -0.1494    1.2222    0.0000 H   0  0  0  0  0  0  0  0  0  0  0  0
    0.6371    2.4152    0.0000 H   0  0  0  0  0  0  0  0  0  0  0  0
    0.5446    4.4417    0.0000 H   0  0  0  0  0  0  0  0  0  0  0  0
    1.4380    3.8529    0.0000 H   0  0  0  0  0  0  0  0  0  0  0  0
    1.1127    1.9513    0.0000 H   0  0  0  0  0  0  0  0  0  0  0  0
    0.0116    3.9374    0.0000 H   0  0  0  0  0  0  0  0  0  0  0  0
   -0.0290    4.7162    0.0000 H   0  0  0  0  0  0  0  0  0  0  0  0
   -1.6195    4.1568    0.0000 H   0  0  0  0  0  0  0  0  0  0  0  0
   -2.3142    4.5110    0.0000 H   0  0  0  0  0  0  0  0  0  0  0  0
   -1.7949    1.1970    0.0000 H   0  0  0  0  0  0  0  0  0  0  0  0
   -2.2013    2.8289    0.0000 H   0  0  0  0  0  0  0  0  0  0  0  0
   -2.8413    4.1065    0.0000 H   0  0  0  0  0  0  0  0  0  0  0  0
   -4.6426    5.0397    0.0000 H   0  0  0  0  0  0  0  0  0  0  0  0
   -3.6859    5.5189    0.0000 H   0  0  0  0  0  0  0  0  0  0  0  0
   -2.2017    4.2865    0.0000 H   0  0  0  0  0  0  0  0  0  0  0  0
   -4.4724    4.3259    0.0000 H   0  0  0  0  0  0  0  0  0  0  0  0
   -5.1672    4.6801    0.0000 H   0  0  0  0  0  0  0  0  0  0  0  0
   -5.4778    3.0231    0.0000 H   0  0  0  0  0  0  0  0  0  0  0  0
   -6.1320    2.5986    0.0000 H   0  0  0  0  0  0  0  0  0  0  0  0
   -3.0022    1.3913    0.0000 H   0  0  0  0  0  0  0  0  0  0  0  0
   -4.8117    0.7221    0.0000 H   0  0  0  0  0  0  0  0  0  0  0  0
    4.0474   -3.0187    0.0000 H   0  0  0  0  0  0  0  0  0  0  0  0
    4.2321   -4.4357    0.0000 H   0  0  0  0  0  0  0  0  0  0  0  0
    3.2618   -6.2171    0.0000 H   0  0  0  0  0  0  0  0  0  0  0  0
    4.3228   -6.0788    0.0000 H   0  0  0  0  0  0  0  0  0  0  0  0
    5.0801   -5.8928    0.0000 H   0  0  0  0  0  0  0  0  0  0  0  0
    3.0034   -5.5303    0.0000 H   0  0  0  0  0  0  0  0  0  0  0  0
    1.0745   -5.5678    0.0000 H   0  0  0  0  0  0  0  0  0  0  0  0
    1.4410   -5.0134    0.0000 H   0  0  0  0  0  0  0  0  0  0  0  0
    0.4440   -3.3618    0.0000 H   0  0  0  0  0  0  0  0  0  0  0  0
    2.5790   -2.2756    0.0000 H   0  0  0  0  0  0  0  0  0  0  0  0
    2.0392   -1.7128    0.0000 H   0  0  0  0  0  0  0  0  0  0  0  0
  1 57  1  0  0  0  0
  1 58  1  0  0  0  0
  1 59  1  0  0  0  0
  2  1  1  1  0  0  0
  2  3  1  0  0  0  0
  2  8  1  0  0  0  0
  2 19  1  0  0  0  0
  3  4  1  0  0  0  0
  3 60  1  0  0  0  0
  3 61  1  0  0  0  0
  4  5  1  0  0  0  0
  4 62  1  0  0  0  0
  4 63  1  0  0  0  0
  5  6  1  0  0  0  0
  5 64  1  0  0  0  0
  5 65  1  0  0  0  0
  6  7  1  0  0  0  0
  6  8  1  0  0  0  0
  6 43  1  0  0  0  0
  7 66  1  0  0  0  0
  7 67  1  0  0  0  0
  7 68  1  0  0  0  0
  8  9  1  0  0  0  0
  8 69  1  0  0  0  0
  9 10  1  0  0  0  0
  9 70  1  0  0  0  0
  9 71  1  0  0  0  0
 10 72  1  0  0  0  0
 10 73  1  0  0  0  0
 11 10  1  1  0  0  0
 11 12  1  0  0  0  0
 11 16  1  0  0  0  0
 11 19  1  0  0  0  0
 12 13  1  0  0  0  0
 12 74  1  0  0  0  0
 12 75  1  0  0  0  0
 13 14  2  0  0  0  0
 14 76  1  0  0  0  0
 14 77  1  0  0  0  0
 15 13  1  0  0  0  0
 15 16  1  0  0  0  0
 15 17  1  0  0  0  0
 15 20  1  6  0  0  0
 16 78  1  0  0  0  0
 16 79  1  0  0  0  0
 17 18  1  0  0  0  0
 17 80  1  0  0  0  0
 17 81  1  0  0  0  0
 18 19  1  0  0  0  0
 18 82  1  0  0  0  0
 18 83  1  0  0  0  0
 19 84  1  0  0  0  0
 21 20  1  0  0  0  0
 21 22  1  0  0  0  0
 21 85  1  6  0  0  0
 23 22  1  0  0  0  0
 23 24  1  0  0  0  0
 23 86  1  6  0  0  0
 24 25  1  0  0  0  0
 24 87  1  0  0  0  0
 24 88  1  0  0  0  0
 25 89  1  0  0  0  0
 26 23  1  0  0  0  0
 26 27  1  0  0  0  0
 26 28  1  0  0  0  0
 26 90  1  1  0  0  0
 27 91  1  0  0  0  0
 28 29  1  0  0  0  0
 28 30  1  0  0  0  0
 28 92  1  6  0  0  0
 29 93  1  0  0  0  0
 30 21  1  0  0  0  0
 30 31  1  0  0  0  0
 30 94  1  6  0  0  0
 32 31  1  0  0  0  0
 32 33  1  0  0  0  0
 32 95  1  6  0  0  0
 34 33  1  0  0  0  0
 34 35  1  0  0  0  0
 34 96  1  6  0  0  0
 35 36  1  0  0  0  0
 35 97  1  0  0  0  0
 35 98  1  0  0  0  0
 36 99  1  0  0  0  0
 37 34  1  0  0  0  0
 37 38  1  0  0  0  0
 37 39  1  0  0  0  0
 37100  1  1  0  0  0
 38101  1  0  0  0  0
 39 40  1  0  0  0  0
 39 41  1  0  0  0  0
 39102  1  6  0  0  0
 40103  1  0  0  0  0
 41 32  1  0  0  0  0
 41 42  1  0  0  0  0
 41104  1  1  0  0  0
 42105  1  0  0  0  0
 43 44  2  0  0  0  0
 43 45  1  0  0  0  0
 46 45  1  0  0  0  0
 46 47  1  0  0  0  0
 46106  1  1  0  0  0
 48 47  1  0  0  0  0
 48 49  1  0  0  0  0
 48107  1  1  0  0  0
 49 50  1  0  0  0  0
 49108  1  0  0  0  0
 49109  1  0  0  0  0
 50110  1  0  0  0  0
 51 48  1  0  0  0  0
 51 52  1  0  0  0  0
 51 53  1  0  0  0  0
 51111  1  6  0  0  0
 52112  1  0  0  0  0
 53 54  1  0  0  0  0
 53 55  1  0  0  0  0
 53113  1  1  0  0  0
 54114  1  0  0  0  0
 55 46  1  0  0  0  0
 55 56  1  0  0  0  0
 55115  1  6  0  0  0
 56116  1  0  0  0  0
M  END
$$$$
Row22
 OpenBabel08252322322D

137144  0  0  1  0  0  0  0  0999 V2000
    1.8257    0.7777    0.0000 C   0  0  0  0  0  0  0  0  0  0  0  0
    2.0661   -0.0115    0.0000 C   0  0  1  0  0  0  0  0  0  0  0  0
    2.6242    0.5960    0.0000 C   0  0  0  0  0  0  0  0  0  0  0  0
    3.4294    0.4164    0.0000 C   0  0  0  0  0  0  0  0  0  0  0  0
    3.6765   -0.3707    0.0000 C   0  0  0  0  0  0  0  0  0  0  0  0
    3.1184   -0.9782    0.0000 C   0  0  2  0  0  0  0  0  0  0  0  0
    2.8017   -1.7400    0.0000 C   0  0  0  0  0  0  0  0  0  0  0  0
    2.3132   -0.7987    0.0000 C   0  0  3  0  0  0  0  0  0  0  0  0
    1.7596   -1.4229    0.0000 C   0  0  0  0  0  0  0  0  0  0  0  0
    0.9506   -1.2543    0.0000 C   0  0  0  0  0  0  0  0  0  0  0  0
    0.6469   -0.4671    0.0000 C   0  0  1  0  0  0  0  0  0  0  0  0
   -0.1637   -0.8483    0.0000 C   0  0  0  0  0  0  0  0  0  0  0  0
   -0.7854   -0.2403    0.0000 C   0  0  0  0  0  0  0  0  0  0  0  0
   -1.5987   -0.3788    0.0000 C   0  0  0  0  0  0  0  0  0  0  0  0
   -0.4028    0.5335    0.0000 C   0  0  2  0  0  0  0  0  0  0  0  0
    0.1726    0.0666    0.0000 C   0  0  0  0  0  0  0  0  0  0  0  0
    0.1586    1.1914    0.0000 C   0  0  0  0  0  0  0  0  0  0  0  0
    1.0038    1.0309    0.0000 C   0  0  0  0  0  0  0  0  0  0  0  0
    1.2474    0.1857    0.0000 C   0  0  3  0  0  0  0  0  0  0  0  0
   -1.0916    0.9875    0.0000 O   0  0  0  0  0  0  0  0  0  0  0  0
   -1.0428    1.8111    0.0000 C   0  0  2  0  0  0  0  0  0  0  0  0
   -0.3051    2.1806    0.0000 O   0  0  0  0  0  0  0  0  0  0  0  0
   -0.2563    3.0041    0.0000 C   0  0  2  0  0  0  0  0  0  0  0  0
    0.4813    3.3736    0.0000 C   0  0  0  0  0  0  0  0  0  0  0  0
    1.1701    2.9196    0.0000 O   0  0  0  0  0  0  0  0  0  0  0  0
   -0.9451    3.4582    0.0000 C   0  0  1  0  0  0  0  0  0  0  0  0
   -0.8963    4.2817    0.0000 O   0  0  0  0  0  0  0  0  0  0  0  0
   -1.6828    3.0887    0.0000 C   0  0  2  0  0  0  0  0  0  0  0  0
   -2.3716    3.5427    0.0000 O   0  0  0  0  0  0  0  0  0  0  0  0
   -1.7316    2.2651    0.0000 C   0  0  2  0  0  0  0  0  0  0  0  0
   -2.4692    1.8956    0.0000 O   0  0  0  0  0  0  0  0  0  0  0  0
   -3.1580    2.3497    0.0000 C   0  0  2  0  0  0  0  0  0  0  0  0
   -3.1092    3.1732    0.0000 O   0  0  0  0  0  0  0  0  0  0  0  0
   -3.7980    3.6273    0.0000 C   0  0  2  0  0  0  0  0  0  0  0  0
   -3.7492    4.4508    0.0000 C   0  0  0  0  0  0  0  0  0  0  0  0
   -3.0116    4.8203    0.0000 O   0  0  0  0  0  0  0  0  0  0  0  0
   -4.5356    3.2578    0.0000 C   0  0  1  0  0  0  0  0  0  0  0  0
   -5.2245    3.7118    0.0000 O   0  0  0  0  0  0  0  0  0  0  0  0
   -4.5844    2.4342    0.0000 C   0  0  2  0  0  0  0  0  0  0  0  0
   -5.3221    2.0647    0.0000 O   0  0  0  0  0  0  0  0  0  0  0  0
   -3.8956    1.9802    0.0000 C   0  0  1  0  0  0  0  0  0  0  0  0
   -3.9444    1.1566    0.0000 O   0  0  0  0  0  0  0  0  0  0  0  0
    3.8136   -1.4224    0.0000 C   0  0  0  0  0  0  0  0  0  0  0  0
    4.5459   -1.0424    0.0000 O   0  0  0  0  0  0  0  0  0  0  0  0
    3.7766   -2.2466    0.0000 O   0  0  0  0  0  0  0  0  0  0  0  0
    4.4718   -2.6907    0.0000 C   0  0  2  0  0  0  0  0  0  0  0  0
    4.4348   -3.5149    0.0000 O   0  0  0  0  0  0  0  0  0  0  0  0
    5.1300   -3.9590    0.0000 C   0  0  2  0  0  0  0  0  0  0  0  0
    5.0930   -4.7832    0.0000 C   0  0  0  0  0  0  0  0  0  0  0  0
    4.3607   -5.1632    0.0000 O   0  0  0  0  0  0  0  0  0  0  0  0
    5.8623   -3.5790    0.0000 C   0  0  1  0  0  0  0  0  0  0  0  0
    6.5575   -4.0232    0.0000 O   0  0  0  0  0  0  0  0  0  0  0  0
    5.8993   -2.7549    0.0000 C   0  0  2  0  0  0  0  0  0  0  0  0
    6.6316   -2.3748    0.0000 O   0  0  0  0  0  0  0  0  0  0  0  0
    5.2041   -2.3107    0.0000 C   0  0  2  0  0  0  0  0  0  0  0  0
    5.2411   -1.4865    0.0000 O   0  0  0  0  0  0  0  0  0  0  0  0
    5.9734   -1.1065    0.0000 C   0  0  2  0  0  0  0  0  0  0  0  0
    6.6686   -1.5507    0.0000 O   0  0  0  0  0  0  0  0  0  0  0  0
    7.4009   -1.1707    0.0000 C   0  0  2  0  0  0  0  0  0  0  0  0
    8.0961   -1.6148    0.0000 C   0  0  0  0  0  0  0  0  0  0  0  0
    8.0591   -2.4390    0.0000 O   0  0  0  0  0  0  0  0  0  0  0  0
    7.4379   -0.3465    0.0000 C   0  0  1  0  0  0  0  0  0  0  0  0
    8.1702    0.0335    0.0000 O   0  0  0  0  0  0  0  0  0  0  0  0
    6.7427    0.0977    0.0000 C   0  0  2  0  0  0  0  0  0  0  0  0
    6.7797    0.9218    0.0000 O   0  0  0  0  0  0  0  0  0  0  0  0
    6.0104   -0.2824    0.0000 C   0  0  1  0  0  0  0  0  0  0  0  0
    5.3152    0.1618    0.0000 O   0  0  0  0  0  0  0  0  0  0  0  0
    2.5562    1.5595    0.0000 H   0  0  0  0  0  0  0  0  0  0  0  0
    0.7834    1.0195    0.0000 H   0  0  0  0  0  0  0  0  0  0  0  0
    1.5139    1.8013    0.0000 H   0  0  0  0  0  0  0  0  0  0  0  0
    2.3038    1.6169    0.0000 H   0  0  0  0  0  0  0  0  0  0  0  0
    3.3481    1.3840    0.0000 H   0  0  0  0  0  0  0  0  0  0  0  0
    4.1533    1.2044    0.0000 H   0  0  0  0  0  0  0  0  0  0  0  0
    4.4737    0.1835    0.0000 H   0  0  0  0  0  0  0  0  0  0  0  0
    4.7208   -0.6036    0.0000 H   0  0  0  0  0  0  0  0  0  0  0  0
    3.9970   -1.3916    0.0000 H   0  0  0  0  0  0  0  0  0  0  0  0
    1.7407   -1.8783    0.0000 H   0  0  0  0  0  0  0  0  0  0  0  0
    3.4520   -2.5897    0.0000 H   0  0  0  0  0  0  0  0  0  0  0  0
    2.3910   -2.7280    0.0000 H   0  0  0  0  0  0  0  0  0  0  0  0
    3.0370   -0.0107    0.0000 H   0  0  0  0  0  0  0  0  0  0  0  0
    2.0961   -2.4386    0.0000 H   0  0  0  0  0  0  0  0  0  0  0  0
    1.0475   -2.2215    0.0000 H   0  0  0  0  0  0  0  0  0  0  0  0
    0.2580   -2.0699    0.0000 H   0  0  0  0  0  0  0  0  0  0  0  0
   -0.1044   -1.0755    0.0000 H   0  0  0  0  0  0  0  0  0  0  0  0
   -0.3419   -1.9034    0.0000 H   0  0  0  0  0  0  0  0  0  0  0  0
   -1.1812   -1.1794    0.0000 H   0  0  0  0  0  0  0  0  0  0  0  0
   -2.2574    0.4156    0.0000 H   0  0  0  0  0  0  0  0  0  0  0  0
   -1.9573   -1.3465    0.0000 H   0  0  0  0  0  0  0  0  0  0  0  0
    0.9120    0.8400    0.0000 H   0  0  0  0  0  0  0  0  0  0  0  0
    0.1052    1.1345    0.0000 H   0  0  0  0  0  0  0  0  0  0  0  0
   -0.1966    2.2007    0.0000 H   0  0  0  0  0  0  0  0  0  0  0  0
    0.8561    2.0028    0.0000 H   0  0  0  0  0  0  0  0  0  0  0  0
    1.7244    1.8218    0.0000 H   0  0  0  0  0  0  0  0  0  0  0  0
    2.0458    0.7878    0.0000 H   0  0  0  0  0  0  0  0  0  0  0  0
    1.5589   -0.8380    0.0000 H   0  0  0  0  0  0  0  0  0  0  0  0
   -0.1494    1.2222    0.0000 H   0  0  0  0  0  0  0  0  0  0  0  0
    0.6371    2.4152    0.0000 H   0  0  0  0  0  0  0  0  0  0  0  0
    0.5446    4.4417    0.0000 H   0  0  0  0  0  0  0  0  0  0  0  0
    1.4380    3.8529    0.0000 H   0  0  0  0  0  0  0  0  0  0  0  0
    1.1127    1.9513    0.0000 H   0  0  0  0  0  0  0  0  0  0  0  0
    0.0116    3.9374    0.0000 H   0  0  0  0  0  0  0  0  0  0  0  0
   -0.0290    4.7162    0.0000 H   0  0  0  0  0  0  0  0  0  0  0  0
   -1.6195    4.1568    0.0000 H   0  0  0  0  0  0  0  0  0  0  0  0
   -2.3142    4.5110    0.0000 H   0  0  0  0  0  0  0  0  0  0  0  0
   -1.7949    1.1970    0.0000 H   0  0  0  0  0  0  0  0  0  0  0  0
   -2.2013    2.8289    0.0000 H   0  0  0  0  0  0  0  0  0  0  0  0
   -2.8413    4.1065    0.0000 H   0  0  0  0  0  0  0  0  0  0  0  0
   -4.6426    5.0397    0.0000 H   0  0  0  0  0  0  0  0  0  0  0  0
   -3.6859    5.5189    0.0000 H   0  0  0  0  0  0  0  0  0  0  0  0
   -2.2017    4.2865    0.0000 H   0  0  0  0  0  0  0  0  0  0  0  0
   -4.4724    4.3259    0.0000 H   0  0  0  0  0  0  0  0  0  0  0  0
   -5.1672    4.6801    0.0000 H   0  0  0  0  0  0  0  0  0  0  0  0
   -5.4778    3.0231    0.0000 H   0  0  0  0  0  0  0  0  0  0  0  0
   -6.1320    2.5986    0.0000 H   0  0  0  0  0  0  0  0  0  0  0  0
   -3.0022    1.3913    0.0000 H   0  0  0  0  0  0  0  0  0  0  0  0
   -4.8117    0.7221    0.0000 H   0  0  0  0  0  0  0  0  0  0  0  0
    3.5221   -3.1836    0.0000 H   0  0  0  0  0  0  0  0  0  0  0  0
    4.1803   -4.4519    0.0000 H   0  0  0  0  0  0  0  0  0  0  0  0
    5.9947   -5.3593    0.0000 H   0  0  0  0  0  0  0  0  0  0  0  0
    5.0450   -5.8521    0.0000 H   0  0  0  0  0  0  0  0  0  0  0  0
    3.5433   -4.6410    0.0000 H   0  0  0  0  0  0  0  0  0  0  0  0
    5.8142   -4.6479    0.0000 H   0  0  0  0  0  0  0  0  0  0  0  0
    6.5139   -4.9922    0.0000 H   0  0  0  0  0  0  0  0  0  0  0  0
    6.8010   -3.3309    0.0000 H   0  0  0  0  0  0  0  0  0  0  0  0
    7.4491   -2.8970    0.0000 H   0  0  0  0  0  0  0  0  0  0  0  0
    4.3024   -1.7346    0.0000 H   0  0  0  0  0  0  0  0  0  0  0  0
    5.9253   -2.1754    0.0000 H   0  0  0  0  0  0  0  0  0  0  0  0
    7.3529   -2.2396    0.0000 H   0  0  0  0  0  0  0  0  0  0  0  0
    9.0458   -1.1219    0.0000 H   0  0  0  0  0  0  0  0  0  0  0  0
    8.9978   -2.1908    0.0000 H   0  0  0  0  0  0  0  0  0  0  0  0
    7.1981   -2.8858    0.0000 H   0  0  0  0  0  0  0  0  0  0  0  0
    8.3396   -0.9226    0.0000 H   0  0  0  0  0  0  0  0  0  0  0  0
    8.9876   -0.4887    0.0000 H   0  0  0  0  0  0  0  0  0  0  0  0
    7.6924    0.5906    0.0000 H   0  0  0  0  0  0  0  0  0  0  0  0
    7.6407    1.3686    0.0000 H   0  0  0  0  0  0  0  0  0  0  0  0
    5.0607   -0.7753    0.0000 H   0  0  0  0  0  0  0  0  0  0  0  0
    5.3588    1.1308    0.0000 H   0  0  0  0  0  0  0  0  0  0  0  0
  1 68  1  0  0  0  0
  1 69  1  0  0  0  0
  1 70  1  0  0  0  0
  2  1  1  1  0  0  0
  2  3  1  0  0  0  0
  2  8  1  0  0  0  0
  2 19  1  0  0  0  0
  3  4  1  0  0  0  0
  3 71  1  0  0  0  0
  3 72  1  0  0  0  0
  4  5  1  0  0  0  0
  4 73  1  0  0  0  0
  4 74  1  0  0  0  0
  5 75  1  0  0  0  0
  5 76  1  0  0  0  0
  6  5  1  0  0  0  0
  6  7  1  0  0  0  0
  6  8  1  0  0  0  0
  6 43  1  1  0  0  0
  7 77  1  0  0  0  0
  7 78  1  0  0  0  0
  7 79  1  0  0  0  0
  8  9  1  0  0  0  0
  8 80  1  0  0  0  0
  9 10  1  0  0  0  0
  9 81  1  0  0  0  0
  9 82  1  0  0  0  0
 10 83  1  0  0  0  0
 10 84  1  0  0  0  0
 11 10  1  1  0  0  0
 11 12  1  0  0  0  0
 11 16  1  0  0  0  0
 11 19  1  0  0  0  0
 12 13  1  0  0  0  0
 12 85  1  0  0  0  0
 12 86  1  0  0  0  0
 13 14  2  0  0  0  0
 14 87  1  0  0  0  0
 14 88  1  0  0  0  0
 15 13  1  0  0  0  0
 15 16  1  0  0  0  0
 15 17  1  0  0  0  0
 15 20  1  6  0  0  0
 16 89  1  0  0  0  0
 16 90  1  0  0  0  0
 17 18  1  0  0  0  0
 17 91  1  0  0  0  0
 17 92  1  0  0  0  0
 18 19  1  0  0  0  0
 18 93  1  0  0  0  0
 18 94  1  0  0  0  0
 19 95  1  0  0  0  0
 21 20  1  0  0  0  0
 21 22  1  0  0  0  0
 21 96  1  6  0  0  0
 23 22  1  0  0  0  0
 23 24  1  0  0  0  0
 23 97  1  6  0  0  0
 24 25  1  0  0  0  0
 24 98  1  0  0  0  0
 24 99  1  0  0  0  0
 25100  1  0  0  0  0
 26 23  1  0  0  0  0
 26 27  1  0  0  0  0
 26 28  1  0  0  0  0
 26101  1  1  0  0  0
 27102  1  0  0  0  0
 28 29  1  0  0  0  0
 28 30  1  0  0  0  0
 28103  1  6  0  0  0
 29104  1  0  0  0  0
 30 21  1  0  0  0  0
 30 31  1  0  0  0  0
 30105  1  6  0  0  0
 32 31  1  0  0  0  0
 32 33  1  0  0  0  0
 32106  1  6  0  0  0
 34 33  1  0  0  0  0
 34 35  1  0  0  0  0
 34107  1  6  0  0  0
 35 36  1  0  0  0  0
 35108  1  0  0  0  0
 35109  1  0  0  0  0
 36110  1  0  0  0  0
 37 34  1  0  0  0  0
 37 38  1  0  0  0  0
 37 39  1  0  0  0  0
 37111  1  1  0  0  0
 38112  1  0  0  0  0
 39 40  1  0  0  0  0
 39 41  1  0  0  0  0
 39113  1  6  0  0  0
 40114  1  0  0  0  0
 41 32  1  0  0  0  0
 41 42  1  0  0  0  0
 41115  1  1  0  0  0
 42116  1  0  0  0  0
 43 44  2  0  0  0  0
 43 45  1  0  0  0  0
 46 45  1  0  0  0  0
 46 47  1  0  0  0  0
 46117  1  6  0  0  0
 48 47  1  0  0  0  0
 48 49  1  0  0  0  0
 48118  1  6  0  0  0
 49 50  1  0  0  0  0
 49119  1  0  0  0  0
 49120  1  0  0  0  0
 50121  1  0  0  0  0
 51 48  1  0  0  0  0
 51 52  1  0  0  0  0
 51 53  1  0  0  0  0
 51122  1  1  0  0  0
 52123  1  0  0  0  0
 53 54  1  0  0  0  0
 53 55  1  0  0  0  0
 53124  1  6  0  0  0
 54125  1  0  0  0  0
 55 46  1  0  0  0  0
 55 56  1  0  0  0  0
 55126  1  6  0  0  0
 57 56  1  0  0  0  0
 57 58  1  0  0  0  0
 57127  1  6  0  0  0
 59 58  1  0  0  0  0
 59 60  1  0  0  0  0
 59128  1  6  0  0  0
 60 61  1  0  0  0  0
 60129  1  0  0  0  0
 60130  1  0  0  0  0
 61131  1  0  0  0  0
 62 59  1  0  0  0  0
 62 63  1  0  0  0  0
 62 64  1  0  0  0  0
 62132  1  1  0  0  0
 63133  1  0  0  0  0
 64 65  1  0  0  0  0
 64 66  1  0  0  0  0
 64134  1  6  0  0  0
 65135  1  0  0  0  0
 66 57  1  0  0  0  0
 66 67  1  0  0  0  0
 66136  1  1  0  0  0
 67137  1  0  0  0  0
M  END
$$$$
Row23
 OpenBabel08252322322D

137144  0  0  1  0  0  0  0  0999 V2000
    1.8257    0.7777    0.0000 C   0  0  0  0  0  0  0  0  0  0  0  0
    2.0661   -0.0115    0.0000 C   0  0  1  0  0  0  0  0  0  0  0  0
    2.6242    0.5960    0.0000 C   0  0  0  0  0  0  0  0  0  0  0  0
    3.4294    0.4164    0.0000 C   0  0  0  0  0  0  0  0  0  0  0  0
    3.6765   -0.3707    0.0000 C   0  0  0  0  0  0  0  0  0  0  0  0
    3.1184   -0.9782    0.0000 C   0  0  2  0  0  0  0  0  0  0  0  0
    3.8136   -1.4224    0.0000 C   0  0  0  0  0  0  0  0  0  0  0  0
    2.3132   -0.7987    0.0000 C   0  0  3  0  0  0  0  0  0  0  0  0
    1.7596   -1.4229    0.0000 C   0  0  0  0  0  0  0  0  0  0  0  0
    0.9506   -1.2543    0.0000 C   0  0  0  0  0  0  0  0  0  0  0  0
    0.6469   -0.4671    0.0000 C   0  0  1  0  0  0  0  0  0  0  0  0
   -0.1637   -0.8483    0.0000 C   0  0  0  0  0  0  0  0  0  0  0  0
   -0.7854   -0.2403    0.0000 C   0  0  0  0  0  0  0  0  0  0  0  0
   -1.5987   -0.3788    0.0000 C   0  0  0  0  0  0  0  0  0  0  0  0
   -0.4028    0.5335    0.0000 C   0  0  2  0  0  0  0  0  0  0  0  0
    0.1726    0.0666    0.0000 C   0  0  0  0  0  0  0  0  0  0  0  0
    0.1586    1.1914    0.0000 C   0  0  0  0  0  0  0  0  0  0  0  0
    1.0038    1.0309    0.0000 C   0  0  0  0  0  0  0  0  0  0  0  0
    1.2474    0.1857    0.0000 C   0  0  3  0  0  0  0  0  0  0  0  0
   -1.0916    0.9875    0.0000 O   0  0  0  0  0  0  0  0  0  0  0  0
   -1.0428    1.8111    0.0000 C   0  0  2  0  0  0  0  0  0  0  0  0
   -0.3051    2.1806    0.0000 O   0  0  0  0  0  0  0  0  0  0  0  0
   -0.2563    3.0041    0.0000 C   0  0  2  0  0  0  0  0  0  0  0  0
    0.4813    3.3736    0.0000 C   0  0  0  0  0  0  0  0  0  0  0  0
    1.1701    2.9196    0.0000 O   0  0  0  0  0  0  0  0  0  0  0  0
   -0.9451    3.4582    0.0000 C   0  0  1  0  0  0  0  0  0  0  0  0
   -0.8963    4.2817    0.0000 O   0  0  0  0  0  0  0  0  0  0  0  0
   -1.6828    3.0887    0.0000 C   0  0  2  0  0  0  0  0  0  0  0  0
   -2.3716    3.5427    0.0000 O   0  0  0  0  0  0  0  0  0  0  0  0
   -1.7316    2.2651    0.0000 C   0  0  2  0  0  0  0  0  0  0  0  0
   -2.4692    1.8956    0.0000 O   0  0  0  0  0  0  0  0  0  0  0  0
   -3.1580    2.3497    0.0000 C   0  0  2  0  0  0  0  0  0  0  0  0
   -3.1092    3.1732    0.0000 O   0  0  0  0  0  0  0  0  0  0  0  0
   -3.7980    3.6273    0.0000 C   0  0  2  0  0  0  0  0  0  0  0  0
   -3.7492    4.4508    0.0000 C   0  0  0  0  0  0  0  0  0  0  0  0
   -3.0116    4.8203    0.0000 O   0  0  0  0  0  0  0  0  0  0  0  0
   -4.5356    3.2578    0.0000 C   0  0  1  0  0  0  0  0  0  0  0  0
   -5.2245    3.7118    0.0000 O   0  0  0  0  0  0  0  0  0  0  0  0
   -4.5844    2.4342    0.0000 C   0  0  2  0  0  0  0  0  0  0  0  0
   -5.3221    2.0647    0.0000 O   0  0  0  0  0  0  0  0  0  0  0  0
   -5.3709    1.2411    0.0000 C   0  0  2  0  0  0  0  0  0  0  0  0
   -4.6821    0.7871    0.0000 O   0  0  0  0  0  0  0  0  0  0  0  0
   -4.7309   -0.0365    0.0000 C   0  0  2  0  0  0  0  0  0  0  0  0
   -4.0421   -0.4905    0.0000 C   0  0  0  0  0  0  0  0  0  0  0  0
   -4.0909   -1.3141    0.0000 O   0  0  0  0  0  0  0  0  0  0  0  0
   -5.4685   -0.4060    0.0000 C   0  0  1  0  0  0  0  0  0  0  0  0
   -5.5173   -1.2295    0.0000 O   0  0  0  0  0  0  0  0  0  0  0  0
   -6.1573    0.0481    0.0000 C   0  0  2  0  0  0  0  0  0  0  0  0
   -6.8949   -0.3214    0.0000 O   0  0  0  0  0  0  0  0  0  0  0  0
   -6.1085    0.8716    0.0000 C   0  0  1  0  0  0  0  0  0  0  0  0
   -6.7973    1.3257    0.0000 O   0  0  0  0  0  0  0  0  0  0  0  0
   -3.8956    1.9802    0.0000 C   0  0  1  0  0  0  0  0  0  0  0  0
   -3.9444    1.1566    0.0000 O   0  0  0  0  0  0  0  0  0  0  0  0
    2.8017   -1.7400    0.0000 C   0  0  0  0  0  0  0  0  0  0  0  0
    1.9836   -1.8467    0.0000 O   0  0  0  0  0  0  0  0  0  0  0  0
    3.3031   -2.3952    0.0000 O   0  0  0  0  0  0  0  0  0  0  0  0
    2.9864   -3.1570    0.0000 C   0  0  2  0  0  0  0  0  0  0  0  0
    3.4878   -3.8122    0.0000 O   0  0  0  0  0  0  0  0  0  0  0  0
    3.1711   -4.5740    0.0000 C   0  0  2  0  0  0  0  0  0  0  0  0
    3.6725   -5.2291    0.0000 C   0  0  0  0  0  0  0  0  0  0  0  0
    4.4906   -5.1225    0.0000 O   0  0  0  0  0  0  0  0  0  0  0  0
    2.3531   -4.6806    0.0000 C   0  0  1  0  0  0  0  0  0  0  0  0
    2.0364   -5.4424    0.0000 O   0  0  0  0  0  0  0  0  0  0  0  0
    1.8517   -4.0254    0.0000 C   0  0  2  0  0  0  0  0  0  0  0  0
    1.0336   -4.1321    0.0000 O   0  0  0  0  0  0  0  0  0  0  0  0
    2.1683   -3.2636    0.0000 C   0  0  1  0  0  0  0  0  0  0  0  0
    1.6669   -2.6085    0.0000 O   0  0  0  0  0  0  0  0  0  0  0  0
    2.5562    1.5595    0.0000 H   0  0  0  0  0  0  0  0  0  0  0  0
    0.7834    1.0195    0.0000 H   0  0  0  0  0  0  0  0  0  0  0  0
    1.5139    1.8013    0.0000 H   0  0  0  0  0  0  0  0  0  0  0  0
    2.3038    1.6169    0.0000 H   0  0  0  0  0  0  0  0  0  0  0  0
    3.3481    1.3840    0.0000 H   0  0  0  0  0  0  0  0  0  0  0  0
    4.1533    1.2044    0.0000 H   0  0  0  0  0  0  0  0  0  0  0  0
    4.4737    0.1835    0.0000 H   0  0  0  0  0  0  0  0  0  0  0  0
    4.7208   -0.6036    0.0000 H   0  0  0  0  0  0  0  0  0  0  0  0
    3.9970   -1.3916    0.0000 H   0  0  0  0  0  0  0  0  0  0  0  0
    3.7655   -2.4913    0.0000 H   0  0  0  0  0  0  0  0  0  0  0  0
    4.7634   -0.9296    0.0000 H   0  0  0  0  0  0  0  0  0  0  0  0
    4.7153   -1.9985    0.0000 H   0  0  0  0  0  0  0  0  0  0  0  0
    3.0370   -0.0107    0.0000 H   0  0  0  0  0  0  0  0  0  0  0  0
    2.0961   -2.4386    0.0000 H   0  0  0  0  0  0  0  0  0  0  0  0
    1.0475   -2.2215    0.0000 H   0  0  0  0  0  0  0  0  0  0  0  0
    0.2580   -2.0699    0.0000 H   0  0  0  0  0  0  0  0  0  0  0  0
   -0.1044   -1.0755    0.0000 H   0  0  0  0  0  0  0  0  0  0  0  0
   -0.3419   -1.9034    0.0000 H   0  0  0  0  0  0  0  0  0  0  0  0
   -1.1812   -1.1794    0.0000 H   0  0  0  0  0  0  0  0  0  0  0  0
   -2.2574    0.4156    0.0000 H   0  0  0  0  0  0  0  0  0  0  0  0
   -1.9573   -1.3465    0.0000 H   0  0  0  0  0  0  0  0  0  0  0  0
    0.9120    0.8400    0.0000 H   0  0  0  0  0  0  0  0  0  0  0  0
    0.1052    1.1345    0.0000 H   0  0  0  0  0  0  0  0  0  0  0  0
   -0.1966    2.2007    0.0000 H   0  0  0  0  0  0  0  0  0  0  0  0
    0.8561    2.0028    0.0000 H   0  0  0  0  0  0  0  0  0  0  0  0
    1.7244    1.8218    0.0000 H   0  0  0  0  0  0  0  0  0  0  0  0
    2.0458    0.7878    0.0000 H   0  0  0  0  0  0  0  0  0  0  0  0
    1.5589   -0.8380    0.0000 H   0  0  0  0  0  0  0  0  0  0  0  0
   -0.1494    1.2222    0.0000 H   0  0  0  0  0  0  0  0  0  0  0  0
    0.6371    2.4152    0.0000 H   0  0  0  0  0  0  0  0  0  0  0  0
    0.5446    4.4417    0.0000 H   0  0  0  0  0  0  0  0  0  0  0  0
    1.4380    3.8529    0.0000 H   0  0  0  0  0  0  0  0  0  0  0  0
    1.1127    1.9513    0.0000 H   0  0  0  0  0  0  0  0  0  0  0  0
    0.0116    3.9374    0.0000 H   0  0  0  0  0  0  0  0  0  0  0  0
   -0.0290    4.7162    0.0000 H   0  0  0  0  0  0  0  0  0  0  0  0
   -1.6195    4.1568    0.0000 H   0  0  0  0  0  0  0  0  0  0  0  0
   -2.3142    4.5110    0.0000 H   0  0  0  0  0  0  0  0  0  0  0  0
   -1.7949    1.1970    0.0000 H   0  0  0  0  0  0  0  0  0  0  0  0
   -2.2013    2.8289    0.0000 H   0  0  0  0  0  0  0  0  0  0  0  0
   -2.8413    4.1065    0.0000 H   0  0  0  0  0  0  0  0  0  0  0  0
   -4.6426    5.0397    0.0000 H   0  0  0  0  0  0  0  0  0  0  0  0
   -3.6859    5.5189    0.0000 H   0  0  0  0  0  0  0  0  0  0  0  0
   -2.2017    4.2865    0.0000 H   0  0  0  0  0  0  0  0  0  0  0  0
   -4.4724    4.3259    0.0000 H   0  0  0  0  0  0  0  0  0  0  0  0
   -5.1672    4.6801    0.0000 H   0  0  0  0  0  0  0  0  0  0  0  0
   -5.4778    3.0231    0.0000 H   0  0  0  0  0  0  0  0  0  0  0  0
   -4.4142    1.7204    0.0000 H   0  0  0  0  0  0  0  0  0  0  0  0
   -3.7742    0.4428    0.0000 H   0  0  0  0  0  0  0  0  0  0  0  0
   -3.0854   -0.0112    0.0000 H   0  0  0  0  0  0  0  0  0  0  0  0
   -3.1487   -1.0794    0.0000 H   0  0  0  0  0  0  0  0  0  0  0  0
   -4.9582   -1.7486    0.0000 H   0  0  0  0  0  0  0  0  0  0  0  0
   -4.5751   -0.9949    0.0000 H   0  0  0  0  0  0  0  0  0  0  0  0
   -6.3846   -1.6640    0.0000 H   0  0  0  0  0  0  0  0  0  0  0  0
   -6.2206   -1.0200    0.0000 H   0  0  0  0  0  0  0  0  0  0  0  0
   -7.7048    0.2124    0.0000 H   0  0  0  0  0  0  0  0  0  0  0  0
   -6.0452    1.9397    0.0000 H   0  0  0  0  0  0  0  0  0  0  0  0
   -6.7399    2.2940    0.0000 H   0  0  0  0  0  0  0  0  0  0  0  0
   -3.0022    1.3913    0.0000 H   0  0  0  0  0  0  0  0  0  0  0  0
   -4.8117    0.7221    0.0000 H   0  0  0  0  0  0  0  0  0  0  0  0
    4.0474   -3.0187    0.0000 H   0  0  0  0  0  0  0  0  0  0  0  0
    4.2321   -4.4357    0.0000 H   0  0  0  0  0  0  0  0  0  0  0  0
    3.2618   -6.2171    0.0000 H   0  0  0  0  0  0  0  0  0  0  0  0
    4.3228   -6.0788    0.0000 H   0  0  0  0  0  0  0  0  0  0  0  0
    5.0801   -5.8928    0.0000 H   0  0  0  0  0  0  0  0  0  0  0  0
    3.0034   -5.5303    0.0000 H   0  0  0  0  0  0  0  0  0  0  0  0
    1.0745   -5.5678    0.0000 H   0  0  0  0  0  0  0  0  0  0  0  0
    1.4410   -5.0134    0.0000 H   0  0  0  0  0  0  0  0  0  0  0  0
    0.4440   -3.3618    0.0000 H   0  0  0  0  0  0  0  0  0  0  0  0
    2.5790   -2.2756    0.0000 H   0  0  0  0  0  0  0  0  0  0  0  0
    2.0392   -1.7128    0.0000 H   0  0  0  0  0  0  0  0  0  0  0  0
  1 68  1  0  0  0  0
  1 69  1  0  0  0  0
  1 70  1  0  0  0  0
  2  1  1  1  0  0  0
  2  3  1  0  0  0  0
  2  8  1  0  0  0  0
  2 19  1  0  0  0  0
  3  4  1  0  0  0  0
  3 71  1  0  0  0  0
  3 72  1  0  0  0  0
  4  5  1  0  0  0  0
  4 73  1  0  0  0  0
  4 74  1  0  0  0  0
  5 75  1  0  0  0  0
  5 76  1  0  0  0  0
  6  5  1  0  0  0  0
  6  7  1  0  0  0  0
  6  8  1  0  0  0  0
  6 54  1  1  0  0  0
  7 77  1  0  0  0  0
  7 78  1  0  0  0  0
  7 79  1  0  0  0  0
  8  9  1  0  0  0  0
  8 80  1  0  0  0  0
  9 10  1  0  0  0  0
  9 81  1  0  0  0  0
  9 82  1  0  0  0  0
 10 83  1  0  0  0  0
 10 84  1  0  0  0  0
 11 10  1  1  0  0  0
 11 12  1  0  0  0  0
 11 16  1  0  0  0  0
 11 19  1  0  0  0  0
 12 13  1  0  0  0  0
 12 85  1  0  0  0  0
 12 86  1  0  0  0  0
 13 14  2  0  0  0  0
 14 87  1  0  0  0  0
 14 88  1  0  0  0  0
 15 13  1  0  0  0  0
 15 16  1  0  0  0  0
 15 17  1  0  0  0  0
 15 20  1  6  0  0  0
 16 89  1  0  0  0  0
 16 90  1  0  0  0  0
 17 18  1  0  0  0  0
 17 91  1  0  0  0  0
 17 92  1  0  0  0  0
 18 19  1  0  0  0  0
 18 93  1  0  0  0  0
 18 94  1  0  0  0  0
 19 95  1  0  0  0  0
 21 20  1  0  0  0  0
 21 22  1  0  0  0  0
 21 96  1  6  0  0  0
 23 22  1  0  0  0  0
 23 24  1  0  0  0  0
 23 97  1  6  0  0  0
 24 25  1  0  0  0  0
 24 98  1  0  0  0  0
 24 99  1  0  0  0  0
 25100  1  0  0  0  0
 26 23  1  0  0  0  0
 26 27  1  0  0  0  0
 26 28  1  0  0  0  0
 26101  1  1  0  0  0
 27102  1  0  0  0  0
 28 29  1  0  0  0  0
 28 30  1  0  0  0  0
 28103  1  6  0  0  0
 29104  1  0  0  0  0
 30 21  1  0  0  0  0
 30 31  1  0  0  0  0
 30105  1  6  0  0  0
 32 31  1  0  0  0  0
 32 33  1  0  0  0  0
 32106  1  6  0  0  0
 34 33  1  0  0  0  0
 34 35  1  0  0  0  0
 34107  1  6  0  0  0
 35 36  1  0  0  0  0
 35108  1  0  0  0  0
 35109  1  0  0  0  0
 36110  1  0  0  0  0
 37 34  1  0  0  0  0
 37 38  1  0  0  0  0
 37 39  1  0  0  0  0
 37111  1  1  0  0  0
 38112  1  0  0  0  0
 39 40  1  0  0  0  0
 39 52  1  0  0  0  0
 39113  1  6  0  0  0
 41 40  1  0  0  0  0
 41 42  1  0  0  0  0
 41114  1  1  0  0  0
 43 42  1  0  0  0  0
 43 44  1  0  0  0  0
 43115  1  1  0  0  0
 44 45  1  0  0  0  0
 44116  1  0  0  0  0
 44117  1  0  0  0  0
 45118  1  0  0  0  0
 46 43  1  0  0  0  0
 46 47  1  0  0  0  0
 46 48  1  0  0  0  0
 46119  1  6  0  0  0
 47120  1  0  0  0  0
 48 49  1  0  0  0  0
 48 50  1  0  0  0  0
 48121  1  1  0  0  0
 49122  1  0  0  0  0
 50 41  1  0  0  0  0
 50 51  1  0  0  0  0
 50123  1  6  0  0  0
 51124  1  0  0  0  0
 52 32  1  0  0  0  0
 52 53  1  0  0  0  0
 52125  1  1  0  0  0
 53126  1  0  0  0  0
 54 55  2  0  0  0  0
 54 56  1  0  0  0  0
 57 56  1  0  0  0  0
 57 58  1  0  0  0  0
 57127  1  1  0  0  0
 59 58  1  0  0  0  0
 59 60  1  0  0  0  0
 59128  1  1  0  0  0
 60 61  1  0  0  0  0
 60129  1  0  0  0  0
 60130  1  0  0  0  0
 61131  1  0  0  0  0
 62 59  1  0  0  0  0
 62 63  1  0  0  0  0
 62 64  1  0  0  0  0
 62132  1  6  0  0  0
 63133  1  0  0  0  0
 64 65  1  0  0  0  0
 64 66  1  0  0  0  0
 64134  1  1  0  0  0
 65135  1  0  0  0  0
 66 57  1  0  0  0  0
 66 67  1  0  0  0  0
 66136  1  6  0  0  0
 67137  1  0  0  0  0
M  END
$$$$
Row24
 OpenBabel08252322323D

 95100  0  0  1  0  0  0  0  0999 V2000
    3.5296   -0.6368   -3.0909 C   0  0  0  0  0  0  0  0  0  0  0  0
    3.9227   -0.4512   -4.6067 C   0  0  1  0  0  0  0  0  0  0  0  0
    5.4230   -0.9305   -4.7626 C   0  0  0  0  0  0  0  0  0  0  0  0
    5.6705   -2.4839   -4.5820 C   0  0  0  0  0  0  0  0  0  0  0  0
    4.6970   -3.4616   -5.4622 C   0  0  0  0  0  0  0  0  0  0  0  0
    3.1787   -2.9476   -5.4442 C   0  0  2  0  0  0  0  0  0  0  0  0
    2.5271   -3.6877   -6.6746 C   0  0  0  0  0  0  0  0  0  0  0  0
    3.0213   -1.3355   -5.5885 C   0  0  1  0  0  0  0  0  0  0  0  0
    1.5502   -0.7986   -5.6609 C   0  0  0  0  0  0  0  0  0  0  0  0
    1.4878    0.6619   -6.1550 C   0  0  0  0  0  0  0  0  0  0  0  0
    2.3478    1.6514   -5.3025 C   0  0  2  0  0  0  0  0  0  0  0  0
    1.6438    2.1505   -3.9982 C   0  0  0  0  0  0  0  0  0  0  0  0
    2.1785    3.4842   -3.7861 C   0  0  0  0  0  0  0  0  0  0  0  0
    2.0013    4.1613   -2.6396 C   0  0  0  0  0  0  0  0  0  0  0  0
    2.9714    3.9555   -4.9211 C   0  0  2  0  0  0  0  0  0  0  0  0
    2.4335    3.0260   -6.0372 C   0  0  0  0  0  0  0  0  0  0  0  0
    4.4801    3.6007   -4.6762 C   0  0  0  0  0  0  0  0  0  0  0  0
    4.7114    2.1151   -4.2655 C   0  0  0  0  0  0  0  0  0  0  0  0
    3.8225    1.0850   -5.0708 C   0  0  1  0  0  0  0  0  0  0  0  0
    2.6996    5.3702   -5.1420 O   0  0  0  0  0  0  0  0  0  0  0  0
    3.2257    6.0450   -6.3070 C   0  0  2  0  0  0  0  0  0  0  0  0
    4.6668    6.0749   -6.2617 O   0  0  0  0  0  0  0  0  0  0  0  0
    5.3137    6.6806   -7.4013 C   0  0  2  0  0  0  0  0  0  0  0  0
    6.8431    6.5390   -7.1929 C   0  0  0  0  0  0  0  0  0  0  0  0
    7.2186    5.1723   -7.0580 O   0  0  0  0  0  0  0  0  0  0  0  0
    4.8702    8.1681   -7.5332 C   0  0  1  0  0  0  0  0  0  0  0  0
    5.3710    8.7407   -8.7415 O   0  0  0  0  0  0  0  0  0  0  0  0
    3.3226    8.3098   -7.4864 C   0  0  2  0  0  0  0  0  0  0  0  0
    2.9725    9.6914   -7.3797 O   0  0  0  0  0  0  0  0  0  0  0  0
    2.7093    7.5092   -6.3043 C   0  0  1  0  0  0  0  0  0  0  0  0
    1.2849    7.5410   -6.3795 O   0  0  0  0  0  0  0  0  0  0  0  0
    2.4663   -3.4169   -4.2033 C   0  0  0  0  0  0  0  0  0  0  0  0
    1.2111   -3.3782   -4.1453 O   0  0  0  0  0  0  0  0  0  0  0  0
    3.1383   -3.8848   -3.1016 O   0  0  0  0  0  0  0  0  0  0  0  0
    2.5700   -4.1503   -1.8040 C   0  0  2  0  0  0  0  0  0  0  0  0
    2.0083   -2.8967   -1.3519 O   0  0  0  0  0  0  0  0  0  0  0  0
    1.4299   -2.8664   -0.0305 C   0  0  2  0  0  0  0  0  0  0  0  0
    0.9692   -1.4090    0.2335 C   0  0  0  0  0  0  0  0  0  0  0  0
    0.0615   -0.9650   -0.7688 O   0  0  0  0  0  0  0  0  0  0  0  0
    2.4621   -3.3351    1.0374 C   0  0  1  0  0  0  0  0  0  0  0  0
    1.8248   -3.4885    2.3058 O   0  0  0  0  0  0  0  0  0  0  0  0
    3.1417   -4.6695    0.6252 C   0  0  2  0  0  0  0  0  0  0  0  0
    4.1958   -4.9747    1.5400 O   0  0  0  0  0  0  0  0  0  0  0  0
    3.6866   -4.6072   -0.8285 C   0  0  1  0  0  0  0  0  0  0  0  0
    4.2142   -5.8723   -1.2230 O   0  0  0  0  0  0  0  0  0  0  0  0
    3.6100   -1.6703   -2.8255 H   0  0  0  0  0  0  0  0  0  0  0  0
    2.5228   -0.3073   -2.9406 H   0  0  0  0  0  0  0  0  0  0  0  0
    4.1893   -0.0588   -2.4780 H   0  0  0  0  0  0  0  0  0  0  0  0
    6.0099   -0.4169   -4.0300 H   0  0  0  0  0  0  0  0  0  0  0  0
    5.6967   -0.7073   -5.7726 H   0  0  0  0  0  0  0  0  0  0  0  0
    5.5287   -2.7220   -3.5485 H   0  0  0  0  0  0  0  0  0  0  0  0
    6.6642   -2.6652   -4.9351 H   0  0  0  0  0  0  0  0  0  0  0  0
    4.7347   -4.4496   -5.0532 H   0  0  0  0  0  0  0  0  0  0  0  0
    5.0419   -3.4558   -6.4751 H   0  0  0  0  0  0  0  0  0  0  0  0
    3.0119   -3.3758   -7.5760 H   0  0  0  0  0  0  0  0  0  0  0  0
    1.4864   -3.4445   -6.7268 H   0  0  0  0  0  0  0  0  0  0  0  0
    2.6408   -4.7450   -6.5559 H   0  0  0  0  0  0  0  0  0  0  0  0
    3.4349   -1.1927   -6.5649 H   0  0  0  0  0  0  0  0  0  0  0  0
    1.1155   -0.8512   -4.6846 H   0  0  0  0  0  0  0  0  0  0  0  0
    1.0125   -1.4054   -6.3591 H   0  0  0  0  0  0  0  0  0  0  0  0
    0.4686    0.9861   -6.1228 H   0  0  0  0  0  0  0  0  0  0  0  0
    1.8889    0.6738   -7.1469 H   0  0  0  0  0  0  0  0  0  0  0  0
    1.8801    1.5122   -3.1726 H   0  0  0  0  0  0  0  0  0  0  0  0
    0.5773    2.1478   -4.0841 H   0  0  0  0  0  0  0  0  0  0  0  0
    1.4249    3.7567   -1.8852 H   0  0  0  0  0  0  0  0  0  0  0  0
    2.4416    5.0861   -2.5132 H   0  0  0  0  0  0  0  0  0  0  0  0
    1.4708    3.3451   -6.3783 H   0  0  0  0  0  0  0  0  0  0  0  0
    3.0447    3.0082   -6.9153 H   0  0  0  0  0  0  0  0  0  0  0  0
    4.8534    4.2299   -3.8954 H   0  0  0  0  0  0  0  0  0  0  0  0
    4.9936    3.7545   -5.6022 H   0  0  0  0  0  0  0  0  0  0  0  0
    4.4858    2.0138   -3.2245 H   0  0  0  0  0  0  0  0  0  0  0  0
    5.7327    1.8857   -4.4873 H   0  0  0  0  0  0  0  0  0  0  0  0
    4.2670    1.0094   -6.0411 H   0  0  0  0  0  0  0  0  0  0  0  0
    2.9085    5.5243   -7.1863 H   0  0  0  0  0  0  0  0  0  0  0  0
    5.0373    6.1972   -8.3150 H   0  0  0  0  0  0  0  0  0  0  0  0
    7.1253    7.0679   -6.3066 H   0  0  0  0  0  0  0  0  0  0  0  0
    7.3413    6.9450   -8.0484 H   0  0  0  0  0  0  0  0  0  0  0  0
    6.7742    4.7896   -6.2853 H   0  0  0  0  0  0  0  0  0  0  0  0
    5.2811    8.6963   -6.6982 H   0  0  0  0  0  0  0  0  0  0  0  0
    5.0014    8.2653   -9.5020 H   0  0  0  0  0  0  0  0  0  0  0  0
    2.9225    7.9045   -8.3922 H   0  0  0  0  0  0  0  0  0  0  0  0
    3.3370   10.0548   -6.5575 H   0  0  0  0  0  0  0  0  0  0  0  0
    3.0146    7.9660   -5.3861 H   0  0  0  0  0  0  0  0  0  0  0  0
    0.9956    7.1292   -7.2087 H   0  0  0  0  0  0  0  0  0  0  0  0
    1.8299   -4.9220   -1.8459 H   0  0  0  0  0  0  0  0  0  0  0  0
    0.5982   -3.5364    0.0346 H   0  0  0  0  0  0  0  0  0  0  0  0
    1.8257   -0.7677    0.2371 H   0  0  0  0  0  0  0  0  0  0  0  0
    0.4700   -1.3783    1.1794 H   0  0  0  0  0  0  0  0  0  0  0  0
    0.4993   -0.9869   -1.6341 H   0  0  0  0  0  0  0  0  0  0  0  0
    3.2204   -2.5835    1.1082 H   0  0  0  0  0  0  0  0  0  0  0  0
    1.1373   -4.1698    2.2419 H   0  0  0  0  0  0  0  0  0  0  0  0
    2.4053   -5.4451    0.6591 H   0  0  0  0  0  0  0  0  0  0  0  0
    4.8637   -4.2719    1.5098 H   0  0  0  0  0  0  0  0  0  0  0  0
    4.4803   -3.8905   -0.8628 H   0  0  0  0  0  0  0  0  0  0  0  0
    3.5094   -6.5383   -1.1988 H   0  0  0  0  0  0  0  0  0  0  0  0
  1 46  1  0  0  0  0
  1 47  1  0  0  0  0
  1 48  1  0  0  0  0
  2  1  1  1  0  0  0
  2  3  1  0  0  0  0
  2  8  1  0  0  0  0
  2 19  1  0  0  0  0
  3  4  1  0  0  0  0
  3 49  1  0  0  0  0
  3 50  1  0  0  0  0
  4  5  1  0  0  0  0
  4 51  1  0  0  0  0
  4 52  1  0  0  0  0
  5  6  1  0  0  0  0
  5 53  1  0  0  0  0
  5 54  1  0  0  0  0
  6  7  1  0  0  0  0
  6  8  1  0  0  0  0
  6 32  1  1  0  0  0
  7 55  1  0  0  0  0
  7 56  1  0  0  0  0
  7 57  1  0  0  0  0
  8  9  1  0  0  0  0
  8 58  1  6  0  0  0
  9 10  1  0  0  0  0
  9 59  1  0  0  0  0
  9 60  1  0  0  0  0
 10 61  1  0  0  0  0
 10 62  1  0  0  0  0
 11 10  1  6  0  0  0
 11 12  1  0  0  0  0
 11 16  1  0  0  0  0
 11 19  1  0  0  0  0
 12 13  1  0  0  0  0
 12 63  1  0  0  0  0
 12 64  1  0  0  0  0
 13 14  2  0  0  0  0
 13 15  1  0  0  0  0
 14 65  1  0  0  0  0
 14 66  1  0  0  0  0
 15 16  1  0  0  0  0
 15 17  1  0  0  0  0
 15 20  1  6  0  0  0
 16 67  1  0  0  0  0
 16 68  1  0  0  0  0
 17 18  1  0  0  0  0
 17 69  1  0  0  0  0
 17 70  1  0  0  0  0
 18 19  1  0  0  0  0
 18 71  1  0  0  0  0
 18 72  1  0  0  0  0
 19 73  1  6  0  0  0
 20 21  1  0  0  0  0
 21 22  1  0  0  0  0
 21 30  1  0  0  0  0
 21 74  1  6  0  0  0
 22 23  1  0  0  0  0
 23 24  1  0  0  0  0
 23 26  1  0  0  0  0
 23 75  1  6  0  0  0
 24 25  1  0  0  0  0
 24 76  1  0  0  0  0
 24 77  1  0  0  0  0
 25 78  1  0  0  0  0
 26 27  1  0  0  0  0
 26 28  1  0  0  0  0
 26 79  1  1  0  0  0
 27 80  1  0  0  0  0
 28 29  1  0  0  0  0
 28 30  1  0  0  0  0
 28 81  1  6  0  0  0
 29 82  1  0  0  0  0
 30 31  1  0  0  0  0
 30 83  1  1  0  0  0
 31 84  1  0  0  0  0
 32 33  2  0  0  0  0
 32 34  1  0  0  0  0
 34 35  1  0  0  0  0
 35 36  1  0  0  0  0
 35 44  1  0  0  0  0
 35 85  1  6  0  0  0
 36 37  1  0  0  0  0
 37 38  1  0  0  0  0
 37 40  1  0  0  0  0
 37 86  1  1  0  0  0
 38 39  1  0  0  0  0
 38 87  1  0  0  0  0
 38 88  1  0  0  0  0
 39 89  1  0  0  0  0
 40 41  1  0  0  0  0
 40 42  1  0  0  0  0
 40 90  1  1  0  0  0
 41 91  1  0  0  0  0
 42 43  1  0  0  0  0
 42 44  1  0  0  0  0
 42 92  1  1  0  0  0
 43 93  1  0  0  0  0
 44 45  1  0  0  0  0
 44 94  1  6  0  0  0
 45 95  1  0  0  0  0
M  END
$$$$
Row25
 OpenBabel08252322322D

136143  0  0  1  0  0  0  0  0999 V2000
    1.8257    0.7777    0.0000 C   0  0  0  0  0  0  0  0  0  0  0  0
    2.0661   -0.0115    0.0000 C   0  0  1  0  0  0  0  0  0  0  0  0
    2.6242    0.5960    0.0000 C   0  0  0  0  0  0  0  0  0  0  0  0
    3.4294    0.4164    0.0000 C   0  0  0  0  0  0  0  0  0  0  0  0
    3.6765   -0.3707    0.0000 C   0  0  0  0  0  0  0  0  0  0  0  0
    3.1184   -0.9782    0.0000 C   0  0  2  0  0  0  0  0  0  0  0  0
    2.8017   -1.7400    0.0000 C   0  0  0  0  0  0  0  0  0  0  0  0
    2.3132   -0.7987    0.0000 C   0  0  3  0  0  0  0  0  0  0  0  0
    1.7596   -1.4229    0.0000 C   0  0  0  0  0  0  0  0  0  0  0  0
    0.9506   -1.2543    0.0000 C   0  0  0  0  0  0  0  0  0  0  0  0
    0.6469   -0.4671    0.0000 C   0  0  1  0  0  0  0  0  0  0  0  0
   -0.1637   -0.8483    0.0000 C   0  0  0  0  0  0  0  0  0  0  0  0
   -0.7854   -0.2403    0.0000 C   0  0  0  0  0  0  0  0  0  0  0  0
   -1.5987   -0.3788    0.0000 C   0  0  0  0  0  0  0  0  0  0  0  0
   -0.4028    0.5335    0.0000 C   0  0  2  0  0  0  0  0  0  0  0  0
    0.1726    0.0666    0.0000 C   0  0  0  0  0  0  0  0  0  0  0  0
    0.1586    1.1914    0.0000 C   0  0  0  0  0  0  0  0  0  0  0  0
    1.0038    1.0309    0.0000 C   0  0  0  0  0  0  0  0  0  0  0  0
    1.2474    0.1857    0.0000 C   0  0  3  0  0  0  0  0  0  0  0  0
   -1.0916    0.9875    0.0000 O   0  0  0  0  0  0  0  0  0  0  0  0
   -1.0428    1.8111    0.0000 C   0  0  2  0  0  0  0  0  0  0  0  0
   -0.3051    2.1806    0.0000 O   0  0  0  0  0  0  0  0  0  0  0  0
   -0.2563    3.0041    0.0000 C   0  0  2  0  0  0  0  0  0  0  0  0
    0.4813    3.3736    0.0000 C   0  0  0  0  0  0  0  0  0  0  0  0
    0.5301    4.1972    0.0000 O   0  0  0  0  0  0  0  0  0  0  0  0
   -0.9451    3.4582    0.0000 C   0  0  1  0  0  0  0  0  0  0  0  0
   -0.8963    4.2817    0.0000 O   0  0  0  0  0  0  0  0  0  0  0  0
   -1.6828    3.0887    0.0000 C   0  0  2  0  0  0  0  0  0  0  0  0
   -2.3716    3.5427    0.0000 O   0  0  0  0  0  0  0  0  0  0  0  0
   -2.3228    4.3663    0.0000 C   0  0  1  0  0  0  0  0  0  0  0  0
   -3.0116    4.8203    0.0000 C   0  0  0  0  0  0  0  0  0  0  0  0
   -2.9628    5.6439    0.0000 C   0  0  1  0  0  0  0  0  0  0  0  0
   -3.6516    6.0979    0.0000 O   0  0  0  0  0  0  0  0  0  0  0  0
   -2.2251    6.0134    0.0000 C   0  0  2  0  0  0  0  0  0  0  0  0
   -2.1763    6.8369    0.0000 O   0  0  0  0  0  0  0  0  0  0  0  0
   -1.5363    5.5593    0.0000 C   0  0  1  0  0  0  0  0  0  0  0  0
   -0.7987    5.9288    0.0000 C   0  0  0  0  0  0  0  0  0  0  0  0
   -0.1099    5.4748    0.0000 O   0  0  0  0  0  0  0  0  0  0  0  0
   -1.5851    4.7358    0.0000 O   0  0  0  0  0  0  0  0  0  0  0  0
   -1.7316    2.2651    0.0000 C   0  0  2  0  0  0  0  0  0  0  0  0
   -2.4692    1.8956    0.0000 O   0  0  0  0  0  0  0  0  0  0  0  0
   -3.1580    2.3497    0.0000 C   0  0  2  0  0  0  0  0  0  0  0  0
   -3.8956    1.9802    0.0000 O   0  0  0  0  0  0  0  0  0  0  0  0
   -4.5844    2.4342    0.0000 C   0  0  2  0  0  0  0  0  0  0  0  0
   -5.3221    2.0647    0.0000 C   0  0  0  0  0  0  0  0  0  0  0  0
   -5.3709    1.2411    0.0000 O   0  0  0  0  0  0  0  0  0  0  0  0
   -4.5356    3.2578    0.0000 C   0  0  1  0  0  0  0  0  0  0  0  0
   -5.2245    3.7118    0.0000 O   0  0  0  0  0  0  0  0  0  0  0  0
   -3.7980    3.6273    0.0000 C   0  0  2  0  0  0  0  0  0  0  0  0
   -3.7492    4.4508    0.0000 O   0  0  0  0  0  0  0  0  0  0  0  0
   -3.1092    3.1732    0.0000 C   0  0  1  0  0  0  0  0  0  0  0  0
   -2.7296    3.9057    0.0000 O   0  0  0  0  0  0  0  0  0  0  0  0
    3.8136   -1.4224    0.0000 C   0  0  0  0  0  0  0  0  0  0  0  0
    4.5459   -1.0424    0.0000 O   0  0  0  0  0  0  0  0  0  0  0  0
    3.7766   -2.2466    0.0000 O   0  0  0  0  0  0  0  0  0  0  0  0
    4.4718   -2.6907    0.0000 C   0  0  2  0  0  0  0  0  0  0  0  0
    5.2041   -2.3107    0.0000 O   0  0  0  0  0  0  0  0  0  0  0  0
    5.8993   -2.7549    0.0000 C   0  0  2  0  0  0  0  0  0  0  0  0
    6.6316   -2.3748    0.0000 C   0  0  0  0  0  0  0  0  0  0  0  0
    7.3268   -2.8190    0.0000 O   0  0  0  0  0  0  0  0  0  0  0  0
    5.8623   -3.5790    0.0000 C   0  0  1  0  0  0  0  0  0  0  0  0
    6.5575   -4.0232    0.0000 O   0  0  0  0  0  0  0  0  0  0  0  0
    5.1300   -3.9590    0.0000 C   0  0  2  0  0  0  0  0  0  0  0  0
    5.0930   -4.7832    0.0000 O   0  0  0  0  0  0  0  0  0  0  0  0
    4.4348   -3.5149    0.0000 C   0  0  1  0  0  0  0  0  0  0  0  0
    3.7025   -3.8949    0.0000 O   0  0  0  0  0  0  0  0  0  0  0  0
    2.5562    1.5595    0.0000 H   0  0  0  0  0  0  0  0  0  0  0  0
    0.7834    1.0195    0.0000 H   0  0  0  0  0  0  0  0  0  0  0  0
    1.5139    1.8013    0.0000 H   0  0  0  0  0  0  0  0  0  0  0  0
    2.3038    1.6169    0.0000 H   0  0  0  0  0  0  0  0  0  0  0  0
    3.3481    1.3840    0.0000 H   0  0  0  0  0  0  0  0  0  0  0  0
    4.1533    1.2044    0.0000 H   0  0  0  0  0  0  0  0  0  0  0  0
    4.4737    0.1835    0.0000 H   0  0  0  0  0  0  0  0  0  0  0  0
    4.7208   -0.6036    0.0000 H   0  0  0  0  0  0  0  0  0  0  0  0
    3.9970   -1.3916    0.0000 H   0  0  0  0  0  0  0  0  0  0  0  0
    1.7407   -1.8783    0.0000 H   0  0  0  0  0  0  0  0  0  0  0  0
    3.4520   -2.5897    0.0000 H   0  0  0  0  0  0  0  0  0  0  0  0
    2.3910   -2.7280    0.0000 H   0  0  0  0  0  0  0  0  0  0  0  0
    3.0370   -0.0107    0.0000 H   0  0  0  0  0  0  0  0  0  0  0  0
    2.0961   -2.4386    0.0000 H   0  0  0  0  0  0  0  0  0  0  0  0
    1.0475   -2.2215    0.0000 H   0  0  0  0  0  0  0  0  0  0  0  0
    0.2580   -2.0699    0.0000 H   0  0  0  0  0  0  0  0  0  0  0  0
   -0.1044   -1.0755    0.0000 H   0  0  0  0  0  0  0  0  0  0  0  0
   -0.3419   -1.9034    0.0000 H   0  0  0  0  0  0  0  0  0  0  0  0
   -1.1812   -1.1794    0.0000 H   0  0  0  0  0  0  0  0  0  0  0  0
   -2.2574    0.4156    0.0000 H   0  0  0  0  0  0  0  0  0  0  0  0
   -1.9573   -1.3465    0.0000 H   0  0  0  0  0  0  0  0  0  0  0  0
    0.9120    0.8400    0.0000 H   0  0  0  0  0  0  0  0  0  0  0  0
    0.1052    1.1345    0.0000 H   0  0  0  0  0  0  0  0  0  0  0  0
   -0.1966    2.2007    0.0000 H   0  0  0  0  0  0  0  0  0  0  0  0
    0.8561    2.0028    0.0000 H   0  0  0  0  0  0  0  0  0  0  0  0
    1.7244    1.8218    0.0000 H   0  0  0  0  0  0  0  0  0  0  0  0
    2.0458    0.7878    0.0000 H   0  0  0  0  0  0  0  0  0  0  0  0
    1.5589   -0.8380    0.0000 H   0  0  0  0  0  0  0  0  0  0  0  0
   -0.1494    1.2222    0.0000 H   0  0  0  0  0  0  0  0  0  0  0  0
    0.6371    2.4152    0.0000 H   0  0  0  0  0  0  0  0  0  0  0  0
    1.3747    2.7847    0.0000 H   0  0  0  0  0  0  0  0  0  0  0  0
    1.4380    3.8529    0.0000 H   0  0  0  0  0  0  0  0  0  0  0  0
    1.3974    4.6317    0.0000 H   0  0  0  0  0  0  0  0  0  0  0  0
    0.0116    3.9374    0.0000 H   0  0  0  0  0  0  0  0  0  0  0  0
   -0.0290    4.7162    0.0000 H   0  0  0  0  0  0  0  0  0  0  0  0
   -1.6195    4.1568    0.0000 H   0  0  0  0  0  0  0  0  0  0  0  0
   -3.2795    3.8870    0.0000 H   0  0  0  0  0  0  0  0  0  0  0  0
   -3.9683    4.3410    0.0000 H   0  0  0  0  0  0  0  0  0  0  0  0
   -3.9050    5.4092    0.0000 H   0  0  0  0  0  0  0  0  0  0  0  0
   -3.9195    5.1646    0.0000 H   0  0  0  0  0  0  0  0  0  0  0  0
   -3.5942    7.0662    0.0000 H   0  0  0  0  0  0  0  0  0  0  0  0
   -3.1185    6.6023    0.0000 H   0  0  0  0  0  0  0  0  0  0  0  0
   -1.3090    7.2714    0.0000 H   0  0  0  0  0  0  0  0  0  0  0  0
   -1.4730    6.6274    0.0000 H   0  0  0  0  0  0  0  0  0  0  0  0
   -0.7354    6.9969    0.0000 H   0  0  0  0  0  0  0  0  0  0  0  0
    0.1580    6.4081    0.0000 H   0  0  0  0  0  0  0  0  0  0  0  0
   -0.1673    4.5065    0.0000 H   0  0  0  0  0  0  0  0  0  0  0  0
   -1.7949    1.1970    0.0000 H   0  0  0  0  0  0  0  0  0  0  0  0
   -3.2213    1.2816    0.0000 H   0  0  0  0  0  0  0  0  0  0  0  0
   -4.6477    1.3661    0.0000 H   0  0  0  0  0  0  0  0  0  0  0  0
   -6.2155    2.6536    0.0000 H   0  0  0  0  0  0  0  0  0  0  0  0
   -6.2788    1.5855    0.0000 H   0  0  0  0  0  0  0  0  0  0  0  0
   -6.2382    0.8066    0.0000 H   0  0  0  0  0  0  0  0  0  0  0  0
   -5.4922    2.7785    0.0000 H   0  0  0  0  0  0  0  0  0  0  0  0
   -5.1672    4.6801    0.0000 H   0  0  0  0  0  0  0  0  0  0  0  0
   -4.6914    4.2162    0.0000 H   0  0  0  0  0  0  0  0  0  0  0  0
   -2.8819    4.8853    0.0000 H   0  0  0  0  0  0  0  0  0  0  0  0
   -2.0776    2.8892    0.0000 H   0  0  0  0  0  0  0  0  0  0  0  0
   -1.7606    3.9498    0.0000 H   0  0  0  0  0  0  0  0  0  0  0  0
    4.5198   -1.6218    0.0000 H   0  0  0  0  0  0  0  0  0  0  0  0
    5.9473   -1.6860    0.0000 H   0  0  0  0  0  0  0  0  0  0  0  0
    6.6796   -1.3059    0.0000 H   0  0  0  0  0  0  0  0  0  0  0  0
    7.5813   -1.8820    0.0000 H   0  0  0  0  0  0  0  0  0  0  0  0
    7.2832   -3.7880    0.0000 H   0  0  0  0  0  0  0  0  0  0  0  0
    6.8120   -3.0861    0.0000 H   0  0  0  0  0  0  0  0  0  0  0  0
    6.5139   -4.9922    0.0000 H   0  0  0  0  0  0  0  0  0  0  0  0
    6.0317   -4.5351    0.0000 H   0  0  0  0  0  0  0  0  0  0  0  0
    4.2320   -5.2300    0.0000 H   0  0  0  0  0  0  0  0  0  0  0  0
    3.5331   -2.9388    0.0000 H   0  0  0  0  0  0  0  0  0  0  0  0
    2.8851   -3.3727    0.0000 H   0  0  0  0  0  0  0  0  0  0  0  0
  1 67  1  0  0  0  0
  1 68  1  0  0  0  0
  1 69  1  0  0  0  0
  2  1  1  1  0  0  0
  2  3  1  0  0  0  0
  2  8  1  0  0  0  0
  2 19  1  0  0  0  0
  3  4  1  0  0  0  0
  3 70  1  0  0  0  0
  3 71  1  0  0  0  0
  4  5  1  0  0  0  0
  4 72  1  0  0  0  0
  4 73  1  0  0  0  0
  5 74  1  0  0  0  0
  5 75  1  0  0  0  0
  6  5  1  0  0  0  0
  6  7  1  0  0  0  0
  6  8  1  0  0  0  0
  6 53  1  1  0  0  0
  7 76  1  0  0  0  0
  7 77  1  0  0  0  0
  7 78  1  0  0  0  0
  8  9  1  0  0  0  0
  8 79  1  0  0  0  0
  9 10  1  0  0  0  0
  9 80  1  0  0  0  0
  9 81  1  0  0  0  0
 10 82  1  0  0  0  0
 10 83  1  0  0  0  0
 11 10  1  1  0  0  0
 11 12  1  0  0  0  0
 11 16  1  0  0  0  0
 11 19  1  0  0  0  0
 12 13  1  0  0  0  0
 12 84  1  0  0  0  0
 12 85  1  0  0  0  0
 13 14  2  0  0  0  0
 14 86  1  0  0  0  0
 14 87  1  0  0  0  0
 15 13  1  0  0  0  0
 15 16  1  0  0  0  0
 15 17  1  0  0  0  0
 15 20  1  6  0  0  0
 16 88  1  0  0  0  0
 16 89  1  0  0  0  0
 17 18  1  0  0  0  0
 17 90  1  0  0  0  0
 17 91  1  0  0  0  0
 18 19  1  0  0  0  0
 18 92  1  0  0  0  0
 18 93  1  0  0  0  0
 19 94  1  0  0  0  0
 21 20  1  0  0  0  0
 21 22  1  0  0  0  0
 21 95  1  6  0  0  0
 23 22  1  0  0  0  0
 23 24  1  0  0  0  0
 23 96  1  6  0  0  0
 24 25  1  0  0  0  0
 24 97  1  0  0  0  0
 24 98  1  0  0  0  0
 25 99  1  0  0  0  0
 26 23  1  0  0  0  0
 26 27  1  0  0  0  0
 26 28  1  0  0  0  0
 26100  1  1  0  0  0
 27101  1  0  0  0  0
 28 29  1  0  0  0  0
 28 40  1  0  0  0  0
 28102  1  6  0  0  0
 30 29  1  0  0  0  0
 30 31  1  0  0  0  0
 30 39  1  0  0  0  0
 30103  1  6  0  0  0
 31104  1  0  0  0  0
 31105  1  0  0  0  0
 32 31  1  0  0  0  0
 32 33  1  0  0  0  0
 32106  1  6  0  0  0
 33107  1  0  0  0  0
 34 32  1  0  0  0  0
 34 35  1  0  0  0  0
 34 36  1  0  0  0  0
 34108  1  1  0  0  0
 35109  1  0  0  0  0
 36 37  1  0  0  0  0
 36 39  1  0  0  0  0
 36110  1  6  0  0  0
 37 38  1  0  0  0  0
 37111  1  0  0  0  0
 37112  1  0  0  0  0
 38113  1  0  0  0  0
 40 21  1  0  0  0  0
 40 41  1  0  0  0  0
 40114  1  6  0  0  0
 42 41  1  0  0  0  0
 42 43  1  0  0  0  0
 42115  1  1  0  0  0
 44 43  1  0  0  0  0
 44 45  1  0  0  0  0
 44116  1  1  0  0  0
 45 46  1  0  0  0  0
 45117  1  0  0  0  0
 45118  1  0  0  0  0
 46119  1  0  0  0  0
 47 44  1  0  0  0  0
 47 48  1  0  0  0  0
 47 49  1  0  0  0  0
 47120  1  6  0  0  0
 48121  1  0  0  0  0
 49 50  1  0  0  0  0
 49 51  1  0  0  0  0
 49122  1  1  0  0  0
 50123  1  0  0  0  0
 51 42  1  0  0  0  0
 51 52  1  0  0  0  0
 51124  1  6  0  0  0
 52125  1  0  0  0  0
 53 54  2  0  0  0  0
 53 55  1  0  0  0  0
 56 55  1  0  0  0  0
 56 57  1  0  0  0  0
 56126  1  1  0  0  0
 58 57  1  0  0  0  0
 58 59  1  0  0  0  0
 58127  1  1  0  0  0
 59 60  1  0  0  0  0
 59128  1  0  0  0  0
 59129  1  0  0  0  0
 60130  1  0  0  0  0
 61 58  1  0  0  0  0
 61 62  1  0  0  0  0
 61 63  1  0  0  0  0
 61131  1  6  0  0  0
 62132  1  0  0  0  0
 63 64  1  0  0  0  0
 63 65  1  0  0  0  0
 63133  1  1  0  0  0
 64134  1  0  0  0  0
 65 56  1  0  0  0  0
 65 66  1  0  0  0  0
 65135  1  6  0  0  0
 66136  1  0  0  0  0
M  END
$$$$
Row26
 OpenBabel08252322322D

133140  0  0  1  0  0  0  0  0999 V2000
    1.8257    0.7777    0.0000 C   0  0  0  0  0  0  0  0  0  0  0  0
    2.0661   -0.0115    0.0000 C   0  0  1  0  0  0  0  0  0  0  0  0
    2.6242    0.5960    0.0000 C   0  0  0  0  0  0  0  0  0  0  0  0
    3.4294    0.4164    0.0000 C   0  0  0  0  0  0  0  0  0  0  0  0
    3.6765   -0.3707    0.0000 C   0  0  0  0  0  0  0  0  0  0  0  0
    3.1184   -0.9782    0.0000 C   0  0  2  0  0  0  0  0  0  0  0  0
    2.8017   -1.7400    0.0000 C   0  0  0  0  0  0  0  0  0  0  0  0
    2.3132   -0.7987    0.0000 C   0  0  3  0  0  0  0  0  0  0  0  0
    1.7596   -1.4229    0.0000 C   0  0  0  0  0  0  0  0  0  0  0  0
    0.9506   -1.2543    0.0000 C   0  0  0  0  0  0  0  0  0  0  0  0
    0.6469   -0.4671    0.0000 C   0  0  1  0  0  0  0  0  0  0  0  0
   -0.1637   -0.8483    0.0000 C   0  0  0  0  0  0  0  0  0  0  0  0
   -0.7854   -0.2403    0.0000 C   0  0  0  0  0  0  0  0  0  0  0  0
   -1.5987   -0.3788    0.0000 C   0  0  0  0  0  0  0  0  0  0  0  0
   -0.4028    0.5335    0.0000 C   0  0  2  0  0  0  0  0  0  0  0  0
    0.1726    0.0666    0.0000 C   0  0  0  0  0  0  0  0  0  0  0  0
    0.1586    1.1914    0.0000 C   0  0  0  0  0  0  0  0  0  0  0  0
    1.0038    1.0309    0.0000 C   0  0  0  0  0  0  0  0  0  0  0  0
    1.2474    0.1857    0.0000 C   0  0  3  0  0  0  0  0  0  0  0  0
   -1.0916    0.9875    0.0000 O   0  0  0  0  0  0  0  0  0  0  0  0
   -1.0428    1.8111    0.0000 C   0  0  2  0  0  0  0  0  0  0  0  0
   -0.3051    2.1806    0.0000 O   0  0  0  0  0  0  0  0  0  0  0  0
   -0.2563    3.0041    0.0000 C   0  0  2  0  0  0  0  0  0  0  0  0
    0.4813    3.3736    0.0000 C   0  0  0  0  0  0  0  0  0  0  0  0
    0.5301    4.1972    0.0000 O   0  0  0  0  0  0  0  0  0  0  0  0
   -0.9451    3.4582    0.0000 C   0  0  1  0  0  0  0  0  0  0  0  0
   -0.8963    4.2817    0.0000 O   0  0  0  0  0  0  0  0  0  0  0  0
   -1.6828    3.0887    0.0000 C   0  0  2  0  0  0  0  0  0  0  0  0
   -2.3716    3.5427    0.0000 O   0  0  0  0  0  0  0  0  0  0  0  0
   -2.3228    4.3663    0.0000 C   0  0  2  0  0  0  0  0  0  0  0  0
   -1.5851    4.7358    0.0000 O   0  0  0  0  0  0  0  0  0  0  0  0
   -1.5363    5.5593    0.0000 C   0  0  2  0  0  0  0  0  0  0  0  0
   -0.7987    5.9288    0.0000 C   0  0  0  0  0  0  0  0  0  0  0  0
   -0.1099    5.4748    0.0000 O   0  0  0  0  0  0  0  0  0  0  0  0
   -2.2251    6.0134    0.0000 C   0  0  1  0  0  0  0  0  0  0  0  0
   -2.1763    6.8369    0.0000 O   0  0  0  0  0  0  0  0  0  0  0  0
   -2.9628    5.6439    0.0000 C   0  0  2  0  0  0  0  0  0  0  0  0
   -3.6516    6.0979    0.0000 O   0  0  0  0  0  0  0  0  0  0  0  0
   -3.0116    4.8203    0.0000 C   0  0  1  0  0  0  0  0  0  0  0  0
   -3.7492    4.4508    0.0000 O   0  0  0  0  0  0  0  0  0  0  0  0
   -1.7316    2.2651    0.0000 C   0  0  2  0  0  0  0  0  0  0  0  0
   -2.4692    1.8956    0.0000 O   0  0  0  0  0  0  0  0  0  0  0  0
   -3.1580    2.3497    0.0000 C   0  0  2  0  0  0  0  0  0  0  0  0
   -3.8956    1.9802    0.0000 O   0  0  0  0  0  0  0  0  0  0  0  0
   -4.5844    2.4342    0.0000 C   0  0  0  0  0  0  0  0  0  0  0  0
   -4.5356    3.2578    0.0000 C   0  0  1  0  0  0  0  0  0  0  0  0
   -5.2245    3.7118    0.0000 O   0  0  0  0  0  0  0  0  0  0  0  0
   -3.7980    3.6273    0.0000 C   0  0  2  0  0  0  0  0  0  0  0  0
   -4.2426    4.3222    0.0000 O   0  0  0  0  0  0  0  0  0  0  0  0
   -3.1092    3.1732    0.0000 C   0  0  1  0  0  0  0  0  0  0  0  0
   -2.7296    3.9057    0.0000 O   0  0  0  0  0  0  0  0  0  0  0  0
    3.8136   -1.4224    0.0000 C   0  0  0  0  0  0  0  0  0  0  0  0
    4.5459   -1.0424    0.0000 O   0  0  0  0  0  0  0  0  0  0  0  0
    3.7766   -2.2466    0.0000 O   0  0  0  0  0  0  0  0  0  0  0  0
    4.4718   -2.6907    0.0000 C   0  0  2  0  0  0  0  0  0  0  0  0
    5.2041   -2.3107    0.0000 O   0  0  0  0  0  0  0  0  0  0  0  0
    5.8993   -2.7549    0.0000 C   0  0  2  0  0  0  0  0  0  0  0  0
    6.6316   -2.3748    0.0000 C   0  0  0  0  0  0  0  0  0  0  0  0
    7.3268   -2.8190    0.0000 O   0  0  0  0  0  0  0  0  0  0  0  0
    5.8623   -3.5790    0.0000 C   0  0  1  0  0  0  0  0  0  0  0  0
    6.5575   -4.0232    0.0000 O   0  0  0  0  0  0  0  0  0  0  0  0
    5.1300   -3.9590    0.0000 C   0  0  2  0  0  0  0  0  0  0  0  0
    5.0930   -4.7832    0.0000 O   0  0  0  0  0  0  0  0  0  0  0  0
    4.4348   -3.5149    0.0000 C   0  0  1  0  0  0  0  0  0  0  0  0
    3.7025   -3.8949    0.0000 O   0  0  0  0  0  0  0  0  0  0  0  0
    2.5562    1.5595    0.0000 H   0  0  0  0  0  0  0  0  0  0  0  0
    0.7834    1.0195    0.0000 H   0  0  0  0  0  0  0  0  0  0  0  0
    1.5139    1.8013    0.0000 H   0  0  0  0  0  0  0  0  0  0  0  0
    2.3038    1.6169    0.0000 H   0  0  0  0  0  0  0  0  0  0  0  0
    3.3481    1.3840    0.0000 H   0  0  0  0  0  0  0  0  0  0  0  0
    4.1533    1.2044    0.0000 H   0  0  0  0  0  0  0  0  0  0  0  0
    4.4737    0.1835    0.0000 H   0  0  0  0  0  0  0  0  0  0  0  0
    4.7208   -0.6036    0.0000 H   0  0  0  0  0  0  0  0  0  0  0  0
    3.9970   -1.3916    0.0000 H   0  0  0  0  0  0  0  0  0  0  0  0
    1.7407   -1.8783    0.0000 H   0  0  0  0  0  0  0  0  0  0  0  0
    3.4520   -2.5897    0.0000 H   0  0  0  0  0  0  0  0  0  0  0  0
    2.3910   -2.7280    0.0000 H   0  0  0  0  0  0  0  0  0  0  0  0
    3.0370   -0.0107    0.0000 H   0  0  0  0  0  0  0  0  0  0  0  0
    2.0961   -2.4386    0.0000 H   0  0  0  0  0  0  0  0  0  0  0  0
    1.0475   -2.2215    0.0000 H   0  0  0  0  0  0  0  0  0  0  0  0
    0.2580   -2.0699    0.0000 H   0  0  0  0  0  0  0  0  0  0  0  0
   -0.1044   -1.0755    0.0000 H   0  0  0  0  0  0  0  0  0  0  0  0
   -0.3419   -1.9034    0.0000 H   0  0  0  0  0  0  0  0  0  0  0  0
   -1.1812   -1.1794    0.0000 H   0  0  0  0  0  0  0  0  0  0  0  0
   -2.2574    0.4156    0.0000 H   0  0  0  0  0  0  0  0  0  0  0  0
   -1.9573   -1.3465    0.0000 H   0  0  0  0  0  0  0  0  0  0  0  0
    0.9120    0.8400    0.0000 H   0  0  0  0  0  0  0  0  0  0  0  0
    0.1052    1.1345    0.0000 H   0  0  0  0  0  0  0  0  0  0  0  0
   -0.1966    2.2007    0.0000 H   0  0  0  0  0  0  0  0  0  0  0  0
    0.8561    2.0028    0.0000 H   0  0  0  0  0  0  0  0  0  0  0  0
    1.7244    1.8218    0.0000 H   0  0  0  0  0  0  0  0  0  0  0  0
    2.0458    0.7878    0.0000 H   0  0  0  0  0  0  0  0  0  0  0  0
    1.5589   -0.8380    0.0000 H   0  0  0  0  0  0  0  0  0  0  0  0
   -0.1494    1.2222    0.0000 H   0  0  0  0  0  0  0  0  0  0  0  0
    0.6371    2.4152    0.0000 H   0  0  0  0  0  0  0  0  0  0  0  0
    1.3747    2.7847    0.0000 H   0  0  0  0  0  0  0  0  0  0  0  0
    1.4380    3.8529    0.0000 H   0  0  0  0  0  0  0  0  0  0  0  0
    1.3974    4.6317    0.0000 H   0  0  0  0  0  0  0  0  0  0  0  0
    0.0116    3.9374    0.0000 H   0  0  0  0  0  0  0  0  0  0  0  0
   -0.0290    4.7162    0.0000 H   0  0  0  0  0  0  0  0  0  0  0  0
   -1.6195    4.1568    0.0000 H   0  0  0  0  0  0  0  0  0  0  0  0
   -1.4294    3.7774    0.0000 H   0  0  0  0  0  0  0  0  0  0  0  0
   -0.6429    4.9704    0.0000 H   0  0  0  0  0  0  0  0  0  0  0  0
   -0.7354    6.9969    0.0000 H   0  0  0  0  0  0  0  0  0  0  0  0
    0.1580    6.4081    0.0000 H   0  0  0  0  0  0  0  0  0  0  0  0
   -0.1673    4.5065    0.0000 H   0  0  0  0  0  0  0  0  0  0  0  0
   -1.2684    6.4926    0.0000 H   0  0  0  0  0  0  0  0  0  0  0  0
   -1.3090    7.2714    0.0000 H   0  0  0  0  0  0  0  0  0  0  0  0
   -2.8995    6.7120    0.0000 H   0  0  0  0  0  0  0  0  0  0  0  0
   -3.5942    7.0662    0.0000 H   0  0  0  0  0  0  0  0  0  0  0  0
   -3.0749    3.7522    0.0000 H   0  0  0  0  0  0  0  0  0  0  0  0
   -4.5591    4.9846    0.0000 H   0  0  0  0  0  0  0  0  0  0  0  0
   -1.7949    1.1970    0.0000 H   0  0  0  0  0  0  0  0  0  0  0  0
   -3.2213    1.2816    0.0000 H   0  0  0  0  0  0  0  0  0  0  0  0
   -5.5411    1.9549    0.0000 H   0  0  0  0  0  0  0  0  0  0  0  0
   -5.4778    3.0231    0.0000 H   0  0  0  0  0  0  0  0  0  0  0  0
   -5.4922    2.7785    0.0000 H   0  0  0  0  0  0  0  0  0  0  0  0
   -5.1672    4.6801    0.0000 H   0  0  0  0  0  0  0  0  0  0  0  0
   -4.8296    3.9113    0.0000 H   0  0  0  0  0  0  0  0  0  0  0  0
   -3.7964    5.1835    0.0000 H   0  0  0  0  0  0  0  0  0  0  0  0
   -2.0776    2.8892    0.0000 H   0  0  0  0  0  0  0  0  0  0  0  0
   -1.7606    3.9498    0.0000 H   0  0  0  0  0  0  0  0  0  0  0  0
    4.5198   -1.6218    0.0000 H   0  0  0  0  0  0  0  0  0  0  0  0
    5.9473   -1.6860    0.0000 H   0  0  0  0  0  0  0  0  0  0  0  0
    6.6796   -1.3059    0.0000 H   0  0  0  0  0  0  0  0  0  0  0  0
    7.5813   -1.8820    0.0000 H   0  0  0  0  0  0  0  0  0  0  0  0
    7.2832   -3.7880    0.0000 H   0  0  0  0  0  0  0  0  0  0  0  0
    6.8120   -3.0861    0.0000 H   0  0  0  0  0  0  0  0  0  0  0  0
    6.5139   -4.9922    0.0000 H   0  0  0  0  0  0  0  0  0  0  0  0
    6.0317   -4.5351    0.0000 H   0  0  0  0  0  0  0  0  0  0  0  0
    4.2320   -5.2300    0.0000 H   0  0  0  0  0  0  0  0  0  0  0  0
    3.5331   -2.9388    0.0000 H   0  0  0  0  0  0  0  0  0  0  0  0
    2.8851   -3.3727    0.0000 H   0  0  0  0  0  0  0  0  0  0  0  0
  1 66  1  0  0  0  0
  1 67  1  0  0  0  0
  1 68  1  0  0  0  0
  2  1  1  1  0  0  0
  2  3  1  0  0  0  0
  2  8  1  0  0  0  0
  2 19  1  0  0  0  0
  3  4  1  0  0  0  0
  3 69  1  0  0  0  0
  3 70  1  0  0  0  0
  4  5  1  0  0  0  0
  4 71  1  0  0  0  0
  4 72  1  0  0  0  0
  5 73  1  0  0  0  0
  5 74  1  0  0  0  0
  6  5  1  0  0  0  0
  6  7  1  0  0  0  0
  6  8  1  0  0  0  0
  6 52  1  1  0  0  0
  7 75  1  0  0  0  0
  7 76  1  0  0  0  0
  7 77  1  0  0  0  0
  8  9  1  0  0  0  0
  8 78  1  0  0  0  0
  9 10  1  0  0  0  0
  9 79  1  0  0  0  0
  9 80  1  0  0  0  0
 10 81  1  0  0  0  0
 10 82  1  0  0  0  0
 11 10  1  1  0  0  0
 11 12  1  0  0  0  0
 11 16  1  0  0  0  0
 11 19  1  0  0  0  0
 12 13  1  0  0  0  0
 12 83  1  0  0  0  0
 12 84  1  0  0  0  0
 13 14  2  0  0  0  0
 14 85  1  0  0  0  0
 14 86  1  0  0  0  0
 15 13  1  0  0  0  0
 15 16  1  0  0  0  0
 15 17  1  0  0  0  0
 15 20  1  6  0  0  0
 16 87  1  0  0  0  0
 16 88  1  0  0  0  0
 17 18  1  0  0  0  0
 17 89  1  0  0  0  0
 17 90  1  0  0  0  0
 18 19  1  0  0  0  0
 18 91  1  0  0  0  0
 18 92  1  0  0  0  0
 19 93  1  0  0  0  0
 21 20  1  0  0  0  0
 21 22  1  0  0  0  0
 21 94  1  6  0  0  0
 23 22  1  0  0  0  0
 23 24  1  0  0  0  0
 23 95  1  6  0  0  0
 24 25  1  0  0  0  0
 24 96  1  0  0  0  0
 24 97  1  0  0  0  0
 25 98  1  0  0  0  0
 26 23  1  0  0  0  0
 26 27  1  0  0  0  0
 26 28  1  0  0  0  0
 26 99  1  1  0  0  0
 27100  1  0  0  0  0
 28 29  1  0  0  0  0
 28 41  1  0  0  0  0
 28101  1  6  0  0  0
 30 29  1  0  0  0  0
 30 31  1  0  0  0  0
 30102  1  6  0  0  0
 32 31  1  0  0  0  0
 32 33  1  0  0  0  0
 32103  1  6  0  0  0
 33 34  1  0  0  0  0
 33104  1  0  0  0  0
 33105  1  0  0  0  0
 34106  1  0  0  0  0
 35 32  1  0  0  0  0
 35 36  1  0  0  0  0
 35 37  1  0  0  0  0
 35107  1  1  0  0  0
 36108  1  0  0  0  0
 37 38  1  0  0  0  0
 37 39  1  0  0  0  0
 37109  1  6  0  0  0
 38110  1  0  0  0  0
 39 30  1  0  0  0  0
 39 40  1  0  0  0  0
 39111  1  1  0  0  0
 40112  1  0  0  0  0
 41 21  1  0  0  0  0
 41 42  1  0  0  0  0
 41113  1  6  0  0  0
 43 42  1  0  0  0  0
 43 44  1  0  0  0  0
 43114  1  1  0  0  0
 44 45  1  0  0  0  0
 45115  1  0  0  0  0
 45116  1  0  0  0  0
 46 45  1  0  0  0  0
 46 47  1  0  0  0  0
 46117  1  6  0  0  0
 47118  1  0  0  0  0
 48 46  1  0  0  0  0
 48 49  1  0  0  0  0
 48 50  1  0  0  0  0
 48119  1  1  0  0  0
 49120  1  0  0  0  0
 50 43  1  0  0  0  0
 50 51  1  0  0  0  0
 50121  1  6  0  0  0
 51122  1  0  0  0  0
 52 53  2  0  0  0  0
 52 54  1  0  0  0  0
 55 54  1  0  0  0  0
 55 56  1  0  0  0  0
 55123  1  1  0  0  0
 57 56  1  0  0  0  0
 57 58  1  0  0  0  0
 57124  1  1  0  0  0
 58 59  1  0  0  0  0
 58125  1  0  0  0  0
 58126  1  0  0  0  0
 59127  1  0  0  0  0
 60 57  1  0  0  0  0
 60 61  1  0  0  0  0
 60 62  1  0  0  0  0
 60128  1  6  0  0  0
 61129  1  0  0  0  0
 62 63  1  0  0  0  0
 62 64  1  0  0  0  0
 62130  1  1  0  0  0
 63131  1  0  0  0  0
 64 55  1  0  0  0  0
 64 65  1  0  0  0  0
 64132  1  6  0  0  0
 65133  1  0  0  0  0
M  END
$$$$
Row27
 OpenBabel08252322322D

133140  0  0  1  0  0  0  0  0999 V2000
    1.8257    0.7777    0.0000 C   0  0  0  0  0  0  0  0  0  0  0  0
    2.0661   -0.0115    0.0000 C   0  0  3  0  0  0  0  0  0  0  0  0
    2.6242    0.5960    0.0000 C   0  0  0  0  0  0  0  0  0  0  0  0
    3.4294    0.4164    0.0000 C   0  0  0  0  0  0  0  0  0  0  0  0
    3.6765   -0.3707    0.0000 C   0  0  0  0  0  0  0  0  0  0  0  0
    3.1184   -0.9782    0.0000 C   0  0  2  0  0  0  0  0  0  0  0  0
    2.8017   -1.7400    0.0000 C   0  0  0  0  0  0  0  0  0  0  0  0
    2.3132   -0.7987    0.0000 C   0  0  3  0  0  0  0  0  0  0  0  0
    1.7596   -1.4229    0.0000 C   0  0  0  0  0  0  0  0  0  0  0  0
    0.9506   -1.2543    0.0000 C   0  0  0  0  0  0  0  0  0  0  0  0
    0.6469   -0.4671    0.0000 C   0  0  1  0  0  0  0  0  0  0  0  0
   -0.1637   -0.8483    0.0000 C   0  0  0  0  0  0  0  0  0  0  0  0
   -0.7854   -0.2403    0.0000 C   0  0  0  0  0  0  0  0  0  0  0  0
   -1.5987   -0.3788    0.0000 C   0  0  0  0  0  0  0  0  0  0  0  0
   -0.4028    0.5335    0.0000 C   0  0  2  0  0  0  0  0  0  0  0  0
    0.1726    0.0666    0.0000 C   0  0  0  0  0  0  0  0  0  0  0  0
    0.1586    1.1914    0.0000 C   0  0  0  0  0  0  0  0  0  0  0  0
    1.0038    1.0309    0.0000 C   0  0  0  0  0  0  0  0  0  0  0  0
    1.2474    0.1857    0.0000 C   0  0  3  0  0  0  0  0  0  0  0  0
   -1.0916    0.9875    0.0000 O   0  0  0  0  0  0  0  0  0  0  0  0
   -1.0428    1.8111    0.0000 C   0  0  2  0  0  0  0  0  0  0  0  0
   -0.3051    2.1806    0.0000 O   0  0  0  0  0  0  0  0  0  0  0  0
   -0.2563    3.0041    0.0000 C   0  0  2  0  0  0  0  0  0  0  0  0
    0.4813    3.3736    0.0000 C   0  0  0  0  0  0  0  0  0  0  0  0
    0.5301    4.1972    0.0000 O   0  0  0  0  0  0  0  0  0  0  0  0
   -0.9451    3.4582    0.0000 C   0  0  1  0  0  0  0  0  0  0  0  0
   -0.8963    4.2817    0.0000 O   0  0  0  0  0  0  0  0  0  0  0  0
   -1.6828    3.0887    0.0000 C   0  0  2  0  0  0  0  0  0  0  0  0
   -2.3716    3.5427    0.0000 O   0  0  0  0  0  0  0  0  0  0  0  0
   -2.3228    4.3663    0.0000 C   0  0  2  0  0  0  0  0  0  0  0  0
   -1.5851    4.7358    0.0000 O   0  0  0  0  0  0  0  0  0  0  0  0
   -1.5363    5.5593    0.0000 C   0  0  2  0  0  0  0  0  0  0  0  0
   -0.7987    5.9288    0.0000 C   0  0  0  0  0  0  0  0  0  0  0  0
   -0.1099    5.4748    0.0000 O   0  0  0  0  0  0  0  0  0  0  0  0
   -2.2251    6.0134    0.0000 C   0  0  1  0  0  0  0  0  0  0  0  0
   -2.1763    6.8369    0.0000 O   0  0  0  0  0  0  0  0  0  0  0  0
   -2.9628    5.6439    0.0000 C   0  0  1  0  0  0  0  0  0  0  0  0
   -3.6516    6.0979    0.0000 O   0  0  0  0  0  0  0  0  0  0  0  0
   -3.0116    4.8203    0.0000 C   0  0  1  0  0  0  0  0  0  0  0  0
   -3.7492    4.4508    0.0000 O   0  0  0  0  0  0  0  0  0  0  0  0
   -1.7316    2.2651    0.0000 C   0  0  2  0  0  0  0  0  0  0  0  0
   -2.4692    1.8956    0.0000 O   0  0  0  0  0  0  0  0  0  0  0  0
   -3.1580    2.3497    0.0000 C   0  0  2  0  0  0  0  0  0  0  0  0
   -3.8956    1.9802    0.0000 O   0  0  0  0  0  0  0  0  0  0  0  0
   -4.5844    2.4342    0.0000 C   0  0  0  0  0  0  0  0  0  0  0  0
   -4.5356    3.2578    0.0000 C   0  0  1  0  0  0  0  0  0  0  0  0
   -5.2245    3.7118    0.0000 O   0  0  0  0  0  0  0  0  0  0  0  0
   -3.7980    3.6273    0.0000 C   0  0  2  0  0  0  0  0  0  0  0  0
   -4.2426    4.3222    0.0000 O   0  0  0  0  0  0  0  0  0  0  0  0
   -3.1092    3.1732    0.0000 C   0  0  1  0  0  0  0  0  0  0  0  0
   -2.7296    3.9057    0.0000 O   0  0  0  0  0  0  0  0  0  0  0  0
    3.8136   -1.4224    0.0000 C   0  0  0  0  0  0  0  0  0  0  0  0
    4.5459   -1.0424    0.0000 O   0  0  0  0  0  0  0  0  0  0  0  0
    3.7766   -2.2466    0.0000 O   0  0  0  0  0  0  0  0  0  0  0  0
    4.4718   -2.6907    0.0000 C   0  0  2  0  0  0  0  0  0  0  0  0
    5.2041   -2.3107    0.0000 O   0  0  0  0  0  0  0  0  0  0  0  0
    5.8993   -2.7549    0.0000 C   0  0  2  0  0  0  0  0  0  0  0  0
    6.6316   -2.3748    0.0000 C   0  0  0  0  0  0  0  0  0  0  0  0
    7.3268   -2.8190    0.0000 O   0  0  0  0  0  0  0  0  0  0  0  0
    5.8623   -3.5790    0.0000 C   0  0  1  0  0  0  0  0  0  0  0  0
    6.5575   -4.0232    0.0000 O   0  0  0  0  0  0  0  0  0  0  0  0
    5.1300   -3.9590    0.0000 C   0  0  1  0  0  0  0  0  0  0  0  0
    5.0930   -4.7832    0.0000 O   0  0  0  0  0  0  0  0  0  0  0  0
    4.4348   -3.5149    0.0000 C   0  0  1  0  0  0  0  0  0  0  0  0
    3.7025   -3.8949    0.0000 O   0  0  0  0  0  0  0  0  0  0  0  0
    2.5562    1.5595    0.0000 H   0  0  0  0  0  0  0  0  0  0  0  0
    0.7834    1.0195    0.0000 H   0  0  0  0  0  0  0  0  0  0  0  0
    1.5139    1.8013    0.0000 H   0  0  0  0  0  0  0  0  0  0  0  0
    2.3038    1.6169    0.0000 H   0  0  0  0  0  0  0  0  0  0  0  0
    3.3481    1.3840    0.0000 H   0  0  0  0  0  0  0  0  0  0  0  0
    4.1533    1.2044    0.0000 H   0  0  0  0  0  0  0  0  0  0  0  0
    4.4737    0.1835    0.0000 H   0  0  0  0  0  0  0  0  0  0  0  0
    4.7208   -0.6036    0.0000 H   0  0  0  0  0  0  0  0  0  0  0  0
    3.9970   -1.3916    0.0000 H   0  0  0  0  0  0  0  0  0  0  0  0
    1.7407   -1.8783    0.0000 H   0  0  0  0  0  0  0  0  0  0  0  0
    3.4520   -2.5897    0.0000 H   0  0  0  0  0  0  0  0  0  0  0  0
    2.3910   -2.7280    0.0000 H   0  0  0  0  0  0  0  0  0  0  0  0
    3.0370   -0.0107    0.0000 H   0  0  0  0  0  0  0  0  0  0  0  0
    2.0961   -2.4386    0.0000 H   0  0  0  0  0  0  0  0  0  0  0  0
    1.0475   -2.2215    0.0000 H   0  0  0  0  0  0  0  0  0  0  0  0
    0.2580   -2.0699    0.0000 H   0  0  0  0  0  0  0  0  0  0  0  0
   -0.1044   -1.0755    0.0000 H   0  0  0  0  0  0  0  0  0  0  0  0
   -0.3419   -1.9034    0.0000 H   0  0  0  0  0  0  0  0  0  0  0  0
   -1.1812   -1.1794    0.0000 H   0  0  0  0  0  0  0  0  0  0  0  0
   -2.2574    0.4156    0.0000 H   0  0  0  0  0  0  0  0  0  0  0  0
   -1.9573   -1.3465    0.0000 H   0  0  0  0  0  0  0  0  0  0  0  0
    0.9120    0.8400    0.0000 H   0  0  0  0  0  0  0  0  0  0  0  0
    0.1052    1.1345    0.0000 H   0  0  0  0  0  0  0  0  0  0  0  0
   -0.1966    2.2007    0.0000 H   0  0  0  0  0  0  0  0  0  0  0  0
    0.8561    2.0028    0.0000 H   0  0  0  0  0  0  0  0  0  0  0  0
    1.7244    1.8218    0.0000 H   0  0  0  0  0  0  0  0  0  0  0  0
    2.0458    0.7878    0.0000 H   0  0  0  0  0  0  0  0  0  0  0  0
    1.5589   -0.8380    0.0000 H   0  0  0  0  0  0  0  0  0  0  0  0
   -0.1494    1.2222    0.0000 H   0  0  0  0  0  0  0  0  0  0  0  0
    0.6371    2.4152    0.0000 H   0  0  0  0  0  0  0  0  0  0  0  0
    1.3747    2.7847    0.0000 H   0  0  0  0  0  0  0  0  0  0  0  0
    1.4380    3.8529    0.0000 H   0  0  0  0  0  0  0  0  0  0  0  0
    1.3974    4.6317    0.0000 H   0  0  0  0  0  0  0  0  0  0  0  0
    0.0116    3.9374    0.0000 H   0  0  0  0  0  0  0  0  0  0  0  0
   -0.0290    4.7162    0.0000 H   0  0  0  0  0  0  0  0  0  0  0  0
   -1.6195    4.1568    0.0000 H   0  0  0  0  0  0  0  0  0  0  0  0
   -1.4294    3.7774    0.0000 H   0  0  0  0  0  0  0  0  0  0  0  0
   -0.6429    4.9704    0.0000 H   0  0  0  0  0  0  0  0  0  0  0  0
   -0.7354    6.9969    0.0000 H   0  0  0  0  0  0  0  0  0  0  0  0
    0.1580    6.4081    0.0000 H   0  0  0  0  0  0  0  0  0  0  0  0
   -0.1673    4.5065    0.0000 H   0  0  0  0  0  0  0  0  0  0  0  0
   -1.2684    6.4926    0.0000 H   0  0  0  0  0  0  0  0  0  0  0  0
   -1.3090    7.2714    0.0000 H   0  0  0  0  0  0  0  0  0  0  0  0
   -2.8995    6.7120    0.0000 H   0  0  0  0  0  0  0  0  0  0  0  0
   -3.5942    7.0662    0.0000 H   0  0  0  0  0  0  0  0  0  0  0  0
   -3.0749    3.7522    0.0000 H   0  0  0  0  0  0  0  0  0  0  0  0
   -4.5591    4.9846    0.0000 H   0  0  0  0  0  0  0  0  0  0  0  0
   -1.7949    1.1970    0.0000 H   0  0  0  0  0  0  0  0  0  0  0  0
   -3.2213    1.2816    0.0000 H   0  0  0  0  0  0  0  0  0  0  0  0
   -5.5411    1.9549    0.0000 H   0  0  0  0  0  0  0  0  0  0  0  0
   -5.4778    3.0231    0.0000 H   0  0  0  0  0  0  0  0  0  0  0  0
   -5.4922    2.7785    0.0000 H   0  0  0  0  0  0  0  0  0  0  0  0
   -5.1672    4.6801    0.0000 H   0  0  0  0  0  0  0  0  0  0  0  0
   -4.8296    3.9113    0.0000 H   0  0  0  0  0  0  0  0  0  0  0  0
   -3.7964    5.1835    0.0000 H   0  0  0  0  0  0  0  0  0  0  0  0
   -2.0776    2.8892    0.0000 H   0  0  0  0  0  0  0  0  0  0  0  0
   -1.7606    3.9498    0.0000 H   0  0  0  0  0  0  0  0  0  0  0  0
    4.5198   -1.6218    0.0000 H   0  0  0  0  0  0  0  0  0  0  0  0
    5.9473   -1.6860    0.0000 H   0  0  0  0  0  0  0  0  0  0  0  0
    6.6796   -1.3059    0.0000 H   0  0  0  0  0  0  0  0  0  0  0  0
    7.5813   -1.8820    0.0000 H   0  0  0  0  0  0  0  0  0  0  0  0
    7.2832   -3.7880    0.0000 H   0  0  0  0  0  0  0  0  0  0  0  0
    6.8120   -3.0861    0.0000 H   0  0  0  0  0  0  0  0  0  0  0  0
    6.5139   -4.9922    0.0000 H   0  0  0  0  0  0  0  0  0  0  0  0
    6.0317   -4.5351    0.0000 H   0  0  0  0  0  0  0  0  0  0  0  0
    4.2320   -5.2300    0.0000 H   0  0  0  0  0  0  0  0  0  0  0  0
    3.5331   -2.9388    0.0000 H   0  0  0  0  0  0  0  0  0  0  0  0
    2.8851   -3.3727    0.0000 H   0  0  0  0  0  0  0  0  0  0  0  0
  1  2  1  0  0  0  0
  1 66  1  0  0  0  0
  1 67  1  0  0  0  0
  1 68  1  0  0  0  0
  2  3  1  0  0  0  0
  2  8  1  0  0  0  0
  2 19  1  0  0  0  0
  3  4  1  0  0  0  0
  3 69  1  0  0  0  0
  3 70  1  0  0  0  0
  4  5  1  0  0  0  0
  4 71  1  0  0  0  0
  4 72  1  0  0  0  0
  5 73  1  0  0  0  0
  5 74  1  0  0  0  0
  6  5  1  0  0  0  0
  6  7  1  0  0  0  0
  6  8  1  0  0  0  0
  6 52  1  1  0  0  0
  7 75  1  0  0  0  0
  7 76  1  0  0  0  0
  7 77  1  0  0  0  0
  8  9  1  0  0  0  0
  8 78  1  0  0  0  0
  9 10  1  0  0  0  0
  9 79  1  0  0  0  0
  9 80  1  0  0  0  0
 10 81  1  0  0  0  0
 10 82  1  0  0  0  0
 11 10  1  1  0  0  0
 11 12  1  0  0  0  0
 11 16  1  0  0  0  0
 11 19  1  0  0  0  0
 12 13  1  0  0  0  0
 12 83  1  0  0  0  0
 12 84  1  0  0  0  0
 13 14  2  0  0  0  0
 14 85  1  0  0  0  0
 14 86  1  0  0  0  0
 15 13  1  0  0  0  0
 15 16  1  0  0  0  0
 15 17  1  0  0  0  0
 15 20  1  6  0  0  0
 16 87  1  0  0  0  0
 16 88  1  0  0  0  0
 17 18  1  0  0  0  0
 17 89  1  0  0  0  0
 17 90  1  0  0  0  0
 18 19  1  0  0  0  0
 18 91  1  0  0  0  0
 18 92  1  0  0  0  0
 19 93  1  0  0  0  0
 21 20  1  0  0  0  0
 21 22  1  0  0  0  0
 21 94  1  6  0  0  0
 23 22  1  0  0  0  0
 23 24  1  0  0  0  0
 23 95  1  6  0  0  0
 24 25  1  0  0  0  0
 24 96  1  0  0  0  0
 24 97  1  0  0  0  0
 25 98  1  0  0  0  0
 26 23  1  0  0  0  0
 26 27  1  0  0  0  0
 26 28  1  0  0  0  0
 26 99  1  1  0  0  0
 27100  1  0  0  0  0
 28 29  1  0  0  0  0
 28 41  1  0  0  0  0
 28101  1  6  0  0  0
 30 29  1  0  0  0  0
 30 31  1  0  0  0  0
 30102  1  6  0  0  0
 32 31  1  0  0  0  0
 32 33  1  0  0  0  0
 32103  1  6  0  0  0
 33 34  1  0  0  0  0
 33104  1  0  0  0  0
 33105  1  0  0  0  0
 34106  1  0  0  0  0
 35 32  1  0  0  0  0
 35 36  1  0  0  0  0
 35 37  1  0  0  0  0
 35107  1  1  0  0  0
 36108  1  0  0  0  0
 37 38  1  0  0  0  0
 37 39  1  0  0  0  0
 37109  1  1  0  0  0
 38110  1  0  0  0  0
 39 30  1  0  0  0  0
 39 40  1  0  0  0  0
 39111  1  1  0  0  0
 40112  1  0  0  0  0
 41 21  1  0  0  0  0
 41 42  1  0  0  0  0
 41113  1  6  0  0  0
 43 42  1  0  0  0  0
 43 44  1  0  0  0  0
 43114  1  1  0  0  0
 44 45  1  0  0  0  0
 45115  1  0  0  0  0
 45116  1  0  0  0  0
 46 45  1  0  0  0  0
 46 47  1  0  0  0  0
 46117  1  6  0  0  0
 47118  1  0  0  0  0
 48 46  1  0  0  0  0
 48 49  1  0  0  0  0
 48 50  1  0  0  0  0
 48119  1  1  0  0  0
 49120  1  0  0  0  0
 50 43  1  0  0  0  0
 50 51  1  0  0  0  0
 50121  1  6  0  0  0
 51122  1  0  0  0  0
 52 53  2  0  0  0  0
 52 54  1  0  0  0  0
 55 54  1  0  0  0  0
 55 56  1  0  0  0  0
 55123  1  1  0  0  0
 57 56  1  0  0  0  0
 57 58  1  0  0  0  0
 57124  1  1  0  0  0
 58 59  1  0  0  0  0
 58125  1  0  0  0  0
 58126  1  0  0  0  0
 59127  1  0  0  0  0
 60 57  1  0  0  0  0
 60 61  1  0  0  0  0
 60 62  1  0  0  0  0
 60128  1  6  0  0  0
 61129  1  0  0  0  0
 62 63  1  0  0  0  0
 62 64  1  0  0  0  0
 62130  1  6  0  0  0
 63131  1  0  0  0  0
 64 55  1  0  0  0  0
 64 65  1  0  0  0  0
 64132  1  6  0  0  0
 65133  1  0  0  0  0
M  END
$$$$
Row28
 OpenBabel08252322322D

133140  0  0  1  0  0  0  0  0999 V2000
    1.8257    0.7777    0.0000 C   0  0  0  0  0  0  0  0  0  0  0  0
    2.0661   -0.0115    0.0000 C   0  0  3  0  0  0  0  0  0  0  0  0
    2.6242    0.5960    0.0000 C   0  0  0  0  0  0  0  0  0  0  0  0
    3.4294    0.4164    0.0000 C   0  0  0  0  0  0  0  0  0  0  0  0
    3.6765   -0.3707    0.0000 C   0  0  0  0  0  0  0  0  0  0  0  0
    3.1184   -0.9782    0.0000 C   0  0  2  0  0  0  0  0  0  0  0  0
    2.8017   -1.7400    0.0000 C   0  0  0  0  0  0  0  0  0  0  0  0
    2.3132   -0.7987    0.0000 C   0  0  3  0  0  0  0  0  0  0  0  0
    1.7596   -1.4229    0.0000 C   0  0  0  0  0  0  0  0  0  0  0  0
    0.9506   -1.2543    0.0000 C   0  0  0  0  0  0  0  0  0  0  0  0
    0.6469   -0.4671    0.0000 C   0  0  1  0  0  0  0  0  0  0  0  0
   -0.1637   -0.8483    0.0000 C   0  0  0  0  0  0  0  0  0  0  0  0
   -0.7854   -0.2403    0.0000 C   0  0  0  0  0  0  0  0  0  0  0  0
   -1.5987   -0.3788    0.0000 C   0  0  0  0  0  0  0  0  0  0  0  0
   -0.4028    0.5335    0.0000 C   0  0  2  0  0  0  0  0  0  0  0  0
    0.1726    0.0666    0.0000 C   0  0  0  0  0  0  0  0  0  0  0  0
    0.1586    1.1914    0.0000 C   0  0  0  0  0  0  0  0  0  0  0  0
    1.0038    1.0309    0.0000 C   0  0  0  0  0  0  0  0  0  0  0  0
    1.2474    0.1857    0.0000 C   0  0  3  0  0  0  0  0  0  0  0  0
   -1.0916    0.9875    0.0000 O   0  0  0  0  0  0  0  0  0  0  0  0
   -1.0428    1.8111    0.0000 C   0  0  2  0  0  0  0  0  0  0  0  0
   -0.3051    2.1806    0.0000 O   0  0  0  0  0  0  0  0  0  0  0  0
   -0.2563    3.0041    0.0000 C   0  0  2  0  0  0  0  0  0  0  0  0
    0.4813    3.3736    0.0000 C   0  0  0  0  0  0  0  0  0  0  0  0
    0.5301    4.1972    0.0000 O   0  0  0  0  0  0  0  0  0  0  0  0
   -0.9451    3.4582    0.0000 C   0  0  1  0  0  0  0  0  0  0  0  0
   -0.8963    4.2817    0.0000 O   0  0  0  0  0  0  0  0  0  0  0  0
   -1.6828    3.0887    0.0000 C   0  0  2  0  0  0  0  0  0  0  0  0
   -2.3716    3.5427    0.0000 O   0  0  0  0  0  0  0  0  0  0  0  0
   -2.3228    4.3663    0.0000 C   0  0  2  0  0  0  0  0  0  0  0  0
   -1.5851    4.7358    0.0000 O   0  0  0  0  0  0  0  0  0  0  0  0
   -1.5363    5.5593    0.0000 C   0  0  2  0  0  0  0  0  0  0  0  0
   -0.7987    5.9288    0.0000 C   0  0  0  0  0  0  0  0  0  0  0  0
   -0.1099    5.4748    0.0000 O   0  0  0  0  0  0  0  0  0  0  0  0
   -2.2251    6.0134    0.0000 C   0  0  1  0  0  0  0  0  0  0  0  0
   -2.1763    6.8369    0.0000 O   0  0  0  0  0  0  0  0  0  0  0  0
   -2.9628    5.6439    0.0000 C   0  0  2  0  0  0  0  0  0  0  0  0
   -3.6516    6.0979    0.0000 O   0  0  0  0  0  0  0  0  0  0  0  0
   -3.0116    4.8203    0.0000 C   0  0  1  0  0  0  0  0  0  0  0  0
   -3.7492    4.4508    0.0000 O   0  0  0  0  0  0  0  0  0  0  0  0
   -1.7316    2.2651    0.0000 C   0  0  2  0  0  0  0  0  0  0  0  0
   -2.4692    1.8956    0.0000 O   0  0  0  0  0  0  0  0  0  0  0  0
   -3.1580    2.3497    0.0000 C   0  0  2  0  0  0  0  0  0  0  0  0
   -3.8956    1.9802    0.0000 O   0  0  0  0  0  0  0  0  0  0  0  0
   -4.5844    2.4342    0.0000 C   0  0  0  0  0  0  0  0  0  0  0  0
   -4.5356    3.2578    0.0000 C   0  0  1  0  0  0  0  0  0  0  0  0
   -5.2245    3.7118    0.0000 O   0  0  0  0  0  0  0  0  0  0  0  0
   -3.7980    3.6273    0.0000 C   0  0  2  0  0  0  0  0  0  0  0  0
   -4.2426    4.3222    0.0000 O   0  0  0  0  0  0  0  0  0  0  0  0
   -3.1092    3.1732    0.0000 C   0  0  1  0  0  0  0  0  0  0  0  0
   -2.7296    3.9057    0.0000 O   0  0  0  0  0  0  0  0  0  0  0  0
    3.8136   -1.4224    0.0000 C   0  0  0  0  0  0  0  0  0  0  0  0
    4.5459   -1.0424    0.0000 O   0  0  0  0  0  0  0  0  0  0  0  0
    3.7766   -2.2466    0.0000 O   0  0  0  0  0  0  0  0  0  0  0  0
    4.4718   -2.6907    0.0000 C   0  0  2  0  0  0  0  0  0  0  0  0
    5.2041   -2.3107    0.0000 O   0  0  0  0  0  0  0  0  0  0  0  0
    5.8993   -2.7549    0.0000 C   0  0  2  0  0  0  0  0  0  0  0  0
    6.6316   -2.3748    0.0000 C   0  0  0  0  0  0  0  0  0  0  0  0
    7.3268   -2.8190    0.0000 O   0  0  0  0  0  0  0  0  0  0  0  0
    5.8623   -3.5790    0.0000 C   0  0  1  0  0  0  0  0  0  0  0  0
    6.5575   -4.0232    0.0000 O   0  0  0  0  0  0  0  0  0  0  0  0
    5.1300   -3.9590    0.0000 C   0  0  2  0  0  0  0  0  0  0  0  0
    5.0930   -4.7832    0.0000 O   0  0  0  0  0  0  0  0  0  0  0  0
    4.4348   -3.5149    0.0000 C   0  0  1  0  0  0  0  0  0  0  0  0
    3.7025   -3.8949    0.0000 O   0  0  0  0  0  0  0  0  0  0  0  0
    2.5562    1.5595    0.0000 H   0  0  0  0  0  0  0  0  0  0  0  0
    0.7834    1.0195    0.0000 H   0  0  0  0  0  0  0  0  0  0  0  0
    1.5139    1.8013    0.0000 H   0  0  0  0  0  0  0  0  0  0  0  0
    2.3038    1.6169    0.0000 H   0  0  0  0  0  0  0  0  0  0  0  0
    3.3481    1.3840    0.0000 H   0  0  0  0  0  0  0  0  0  0  0  0
    4.1533    1.2044    0.0000 H   0  0  0  0  0  0  0  0  0  0  0  0
    4.4737    0.1835    0.0000 H   0  0  0  0  0  0  0  0  0  0  0  0
    4.7208   -0.6036    0.0000 H   0  0  0  0  0  0  0  0  0  0  0  0
    3.9970   -1.3916    0.0000 H   0  0  0  0  0  0  0  0  0  0  0  0
    1.7407   -1.8783    0.0000 H   0  0  0  0  0  0  0  0  0  0  0  0
    3.4520   -2.5897    0.0000 H   0  0  0  0  0  0  0  0  0  0  0  0
    2.3910   -2.7280    0.0000 H   0  0  0  0  0  0  0  0  0  0  0  0
    3.0370   -0.0107    0.0000 H   0  0  0  0  0  0  0  0  0  0  0  0
    2.0961   -2.4386    0.0000 H   0  0  0  0  0  0  0  0  0  0  0  0
    1.0475   -2.2215    0.0000 H   0  0  0  0  0  0  0  0  0  0  0  0
    0.2580   -2.0699    0.0000 H   0  0  0  0  0  0  0  0  0  0  0  0
   -0.1044   -1.0755    0.0000 H   0  0  0  0  0  0  0  0  0  0  0  0
   -0.3419   -1.9034    0.0000 H   0  0  0  0  0  0  0  0  0  0  0  0
   -1.1812   -1.1794    0.0000 H   0  0  0  0  0  0  0  0  0  0  0  0
   -2.2574    0.4156    0.0000 H   0  0  0  0  0  0  0  0  0  0  0  0
   -1.9573   -1.3465    0.0000 H   0  0  0  0  0  0  0  0  0  0  0  0
    0.9120    0.8400    0.0000 H   0  0  0  0  0  0  0  0  0  0  0  0
    0.1052    1.1345    0.0000 H   0  0  0  0  0  0  0  0  0  0  0  0
   -0.1966    2.2007    0.0000 H   0  0  0  0  0  0  0  0  0  0  0  0
    0.8561    2.0028    0.0000 H   0  0  0  0  0  0  0  0  0  0  0  0
    1.7244    1.8218    0.0000 H   0  0  0  0  0  0  0  0  0  0  0  0
    2.0458    0.7878    0.0000 H   0  0  0  0  0  0  0  0  0  0  0  0
    1.5589   -0.8380    0.0000 H   0  0  0  0  0  0  0  0  0  0  0  0
   -0.1494    1.2222    0.0000 H   0  0  0  0  0  0  0  0  0  0  0  0
    0.6371    2.4152    0.0000 H   0  0  0  0  0  0  0  0  0  0  0  0
    1.3747    2.7847    0.0000 H   0  0  0  0  0  0  0  0  0  0  0  0
    1.4380    3.8529    0.0000 H   0  0  0  0  0  0  0  0  0  0  0  0
    1.3974    4.6317    0.0000 H   0  0  0  0  0  0  0  0  0  0  0  0
    0.0116    3.9374    0.0000 H   0  0  0  0  0  0  0  0  0  0  0  0
   -0.0290    4.7162    0.0000 H   0  0  0  0  0  0  0  0  0  0  0  0
   -1.6195    4.1568    0.0000 H   0  0  0  0  0  0  0  0  0  0  0  0
   -1.4294    3.7774    0.0000 H   0  0  0  0  0  0  0  0  0  0  0  0
   -0.6429    4.9704    0.0000 H   0  0  0  0  0  0  0  0  0  0  0  0
   -0.7354    6.9969    0.0000 H   0  0  0  0  0  0  0  0  0  0  0  0
    0.1580    6.4081    0.0000 H   0  0  0  0  0  0  0  0  0  0  0  0
   -0.1673    4.5065    0.0000 H   0  0  0  0  0  0  0  0  0  0  0  0
   -1.2684    6.4926    0.0000 H   0  0  0  0  0  0  0  0  0  0  0  0
   -1.3090    7.2714    0.0000 H   0  0  0  0  0  0  0  0  0  0  0  0
   -2.8995    6.7120    0.0000 H   0  0  0  0  0  0  0  0  0  0  0  0
   -3.5942    7.0662    0.0000 H   0  0  0  0  0  0  0  0  0  0  0  0
   -3.0749    3.7522    0.0000 H   0  0  0  0  0  0  0  0  0  0  0  0
   -4.5591    4.9846    0.0000 H   0  0  0  0  0  0  0  0  0  0  0  0
   -1.7949    1.1970    0.0000 H   0  0  0  0  0  0  0  0  0  0  0  0
   -3.2213    1.2816    0.0000 H   0  0  0  0  0  0  0  0  0  0  0  0
   -5.5411    1.9549    0.0000 H   0  0  0  0  0  0  0  0  0  0  0  0
   -5.4778    3.0231    0.0000 H   0  0  0  0  0  0  0  0  0  0  0  0
   -5.4922    2.7785    0.0000 H   0  0  0  0  0  0  0  0  0  0  0  0
   -5.1672    4.6801    0.0000 H   0  0  0  0  0  0  0  0  0  0  0  0
   -4.8296    3.9113    0.0000 H   0  0  0  0  0  0  0  0  0  0  0  0
   -3.7964    5.1835    0.0000 H   0  0  0  0  0  0  0  0  0  0  0  0
   -2.0776    2.8892    0.0000 H   0  0  0  0  0  0  0  0  0  0  0  0
   -1.7606    3.9498    0.0000 H   0  0  0  0  0  0  0  0  0  0  0  0
    4.5198   -1.6218    0.0000 H   0  0  0  0  0  0  0  0  0  0  0  0
    5.9473   -1.6860    0.0000 H   0  0  0  0  0  0  0  0  0  0  0  0
    6.6796   -1.3059    0.0000 H   0  0  0  0  0  0  0  0  0  0  0  0
    7.5813   -1.8820    0.0000 H   0  0  0  0  0  0  0  0  0  0  0  0
    7.2832   -3.7880    0.0000 H   0  0  0  0  0  0  0  0  0  0  0  0
    6.8120   -3.0861    0.0000 H   0  0  0  0  0  0  0  0  0  0  0  0
    6.5139   -4.9922    0.0000 H   0  0  0  0  0  0  0  0  0  0  0  0
    6.0317   -4.5351    0.0000 H   0  0  0  0  0  0  0  0  0  0  0  0
    4.2320   -5.2300    0.0000 H   0  0  0  0  0  0  0  0  0  0  0  0
    3.5331   -2.9388    0.0000 H   0  0  0  0  0  0  0  0  0  0  0  0
    2.8851   -3.3727    0.0000 H   0  0  0  0  0  0  0  0  0  0  0  0
  1  2  1  0  0  0  0
  1 66  1  0  0  0  0
  1 67  1  0  0  0  0
  1 68  1  0  0  0  0
  2  3  1  0  0  0  0
  2  8  1  0  0  0  0
  2 19  1  0  0  0  0
  3  4  1  0  0  0  0
  3 69  1  0  0  0  0
  3 70  1  0  0  0  0
  4  5  1  0  0  0  0
  4 71  1  0  0  0  0
  4 72  1  0  0  0  0
  5 73  1  0  0  0  0
  5 74  1  0  0  0  0
  6  5  1  0  0  0  0
  6  7  1  0  0  0  0
  6  8  1  0  0  0  0
  6 52  1  1  0  0  0
  7 75  1  0  0  0  0
  7 76  1  0  0  0  0
  7 77  1  0  0  0  0
  8  9  1  0  0  0  0
  8 78  1  0  0  0  0
  9 10  1  0  0  0  0
  9 79  1  0  0  0  0
  9 80  1  0  0  0  0
 10 81  1  0  0  0  0
 10 82  1  0  0  0  0
 11 10  1  1  0  0  0
 11 12  1  0  0  0  0
 11 16  1  0  0  0  0
 11 19  1  0  0  0  0
 12 13  1  0  0  0  0
 12 83  1  0  0  0  0
 12 84  1  0  0  0  0
 13 14  2  0  0  0  0
 14 85  1  0  0  0  0
 14 86  1  0  0  0  0
 15 13  1  0  0  0  0
 15 16  1  0  0  0  0
 15 17  1  0  0  0  0
 15 20  1  6  0  0  0
 16 87  1  0  0  0  0
 16 88  1  0  0  0  0
 17 18  1  0  0  0  0
 17 89  1  0  0  0  0
 17 90  1  0  0  0  0
 18 19  1  0  0  0  0
 18 91  1  0  0  0  0
 18 92  1  0  0  0  0
 19 93  1  0  0  0  0
 21 20  1  0  0  0  0
 21 22  1  0  0  0  0
 21 94  1  6  0  0  0
 23 22  1  0  0  0  0
 23 24  1  0  0  0  0
 23 95  1  6  0  0  0
 24 25  1  0  0  0  0
 24 96  1  0  0  0  0
 24 97  1  0  0  0  0
 25 98  1  0  0  0  0
 26 23  1  0  0  0  0
 26 27  1  0  0  0  0
 26 28  1  0  0  0  0
 26 99  1  1  0  0  0
 27100  1  0  0  0  0
 28 29  1  0  0  0  0
 28 41  1  0  0  0  0
 28101  1  6  0  0  0
 30 29  1  0  0  0  0
 30 31  1  0  0  0  0
 30102  1  6  0  0  0
 32 31  1  0  0  0  0
 32 33  1  0  0  0  0
 32103  1  6  0  0  0
 33 34  1  0  0  0  0
 33104  1  0  0  0  0
 33105  1  0  0  0  0
 34106  1  0  0  0  0
 35 32  1  0  0  0  0
 35 36  1  0  0  0  0
 35 37  1  0  0  0  0
 35107  1  1  0  0  0
 36108  1  0  0  0  0
 37 38  1  0  0  0  0
 37 39  1  0  0  0  0
 37109  1  6  0  0  0
 38110  1  0  0  0  0
 39 30  1  0  0  0  0
 39 40  1  0  0  0  0
 39111  1  1  0  0  0
 40112  1  0  0  0  0
 41 21  1  0  0  0  0
 41 42  1  0  0  0  0
 41113  1  6  0  0  0
 43 42  1  0  0  0  0
 43 44  1  0  0  0  0
 43114  1  1  0  0  0
 44 45  1  0  0  0  0
 45115  1  0  0  0  0
 45116  1  0  0  0  0
 46 45  1  0  0  0  0
 46 47  1  0  0  0  0
 46117  1  6  0  0  0
 47118  1  0  0  0  0
 48 46  1  0  0  0  0
 48 49  1  0  0  0  0
 48 50  1  0  0  0  0
 48119  1  1  0  0  0
 49120  1  0  0  0  0
 50 43  1  0  0  0  0
 50 51  1  0  0  0  0
 50121  1  6  0  0  0
 51122  1  0  0  0  0
 52 53  2  0  0  0  0
 52 54  1  0  0  0  0
 55 54  1  0  0  0  0
 55 56  1  0  0  0  0
 55123  1  1  0  0  0
 57 56  1  0  0  0  0
 57 58  1  0  0  0  0
 57124  1  1  0  0  0
 58 59  1  0  0  0  0
 58125  1  0  0  0  0
 58126  1  0  0  0  0
 59127  1  0  0  0  0
 60 57  1  0  0  0  0
 60 61  1  0  0  0  0
 60 62  1  0  0  0  0
 60128  1  6  0  0  0
 61129  1  0  0  0  0
 62 63  1  0  0  0  0
 62 64  1  0  0  0  0
 62130  1  1  0  0  0
 63131  1  0  0  0  0
 64 55  1  0  0  0  0
 64 65  1  0  0  0  0
 64132  1  6  0  0  0
 65133  1  0  0  0  0
M  END
$$$$
Row29
 OpenBabel08252322322D

137144  0  0  1  0  0  0  0  0999 V2000
    1.8257    0.7777    0.0000 C   0  0  0  0  0  0  0  0  0  0  0  0
    2.0661   -0.0115    0.0000 C   0  0  1  0  0  0  0  0  0  0  0  0
    2.6242    0.5960    0.0000 C   0  0  0  0  0  0  0  0  0  0  0  0
    3.4294    0.4164    0.0000 C   0  0  0  0  0  0  0  0  0  0  0  0
    3.6765   -0.3707    0.0000 C   0  0  0  0  0  0  0  0  0  0  0  0
    3.1184   -0.9782    0.0000 C   0  0  2  0  0  0  0  0  0  0  0  0
    2.8017   -1.7400    0.0000 C   0  0  0  0  0  0  0  0  0  0  0  0
    2.3132   -0.7987    0.0000 C   0  0  3  0  0  0  0  0  0  0  0  0
    1.7596   -1.4229    0.0000 C   0  0  0  0  0  0  0  0  0  0  0  0
    0.9506   -1.2543    0.0000 C   0  0  0  0  0  0  0  0  0  0  0  0
    0.6469   -0.4671    0.0000 C   0  0  1  0  0  0  0  0  0  0  0  0
   -0.1637   -0.8483    0.0000 C   0  0  0  0  0  0  0  0  0  0  0  0
   -0.7854   -0.2403    0.0000 C   0  0  0  0  0  0  0  0  0  0  0  0
   -1.5987   -0.3788    0.0000 C   0  0  0  0  0  0  0  0  0  0  0  0
   -0.4028    0.5335    0.0000 C   0  0  2  0  0  0  0  0  0  0  0  0
    0.1726    0.0666    0.0000 C   0  0  0  0  0  0  0  0  0  0  0  0
    0.1586    1.1914    0.0000 C   0  0  0  0  0  0  0  0  0  0  0  0
    1.0038    1.0309    0.0000 C   0  0  0  0  0  0  0  0  0  0  0  0
    1.2474    0.1857    0.0000 C   0  0  3  0  0  0  0  0  0  0  0  0
   -1.0916    0.9875    0.0000 O   0  0  0  0  0  0  0  0  0  0  0  0
   -1.0428    1.8111    0.0000 C   0  0  2  0  0  0  0  0  0  0  0  0
   -0.3051    2.1806    0.0000 O   0  0  0  0  0  0  0  0  0  0  0  0
   -0.2563    3.0041    0.0000 C   0  0  2  0  0  0  0  0  0  0  0  0
    0.4813    3.3736    0.0000 C   0  0  0  0  0  0  0  0  0  0  0  0
    0.5301    4.1972    0.0000 O   0  0  0  0  0  0  0  0  0  0  0  0
   -0.9451    3.4582    0.0000 C   0  0  1  0  0  0  0  0  0  0  0  0
   -0.8963    4.2817    0.0000 O   0  0  0  0  0  0  0  0  0  0  0  0
   -1.6828    3.0887    0.0000 C   0  0  2  0  0  0  0  0  0  0  0  0
   -2.3716    3.5427    0.0000 O   0  0  0  0  0  0  0  0  0  0  0  0
   -2.3228    4.3663    0.0000 C   0  0  2  0  0  0  0  0  0  0  0  0
   -1.5851    4.7358    0.0000 O   0  0  0  0  0  0  0  0  0  0  0  0
   -1.5363    5.5593    0.0000 C   0  0  2  0  0  0  0  0  0  0  0  0
   -0.7987    5.9288    0.0000 C   0  0  0  0  0  0  0  0  0  0  0  0
   -0.1099    5.4748    0.0000 O   0  0  0  0  0  0  0  0  0  0  0  0
   -2.2251    6.0134    0.0000 C   0  0  1  0  0  0  0  0  0  0  0  0
   -2.1763    6.8369    0.0000 O   0  0  0  0  0  0  0  0  0  0  0  0
   -2.9628    5.6439    0.0000 C   0  0  2  0  0  0  0  0  0  0  0  0
   -3.6516    6.0979    0.0000 O   0  0  0  0  0  0  0  0  0  0  0  0
   -3.0116    4.8203    0.0000 C   0  0  1  0  0  0  0  0  0  0  0  0
   -3.7492    4.4508    0.0000 O   0  0  0  0  0  0  0  0  0  0  0  0
   -1.7316    2.2651    0.0000 C   0  0  1  0  0  0  0  0  0  0  0  0
   -2.4692    1.8956    0.0000 O   0  0  0  0  0  0  0  0  0  0  0  0
   -3.1580    2.3497    0.0000 C   0  0  2  0  0  0  0  0  0  0  0  0
   -3.8956    1.9802    0.0000 O   0  0  0  0  0  0  0  0  0  0  0  0
   -4.5844    2.4342    0.0000 C   0  0  2  0  0  0  0  0  0  0  0  0
   -5.3221    2.0647    0.0000 C   0  0  0  0  0  0  0  0  0  0  0  0
   -5.3709    1.2411    0.0000 O   0  0  0  0  0  0  0  0  0  0  0  0
   -4.5356    3.2578    0.0000 C   0  0  1  0  0  0  0  0  0  0  0  0
   -5.2245    3.7118    0.0000 O   0  0  0  0  0  0  0  0  0  0  0  0
   -3.7980    3.6273    0.0000 C   0  0  2  0  0  0  0  0  0  0  0  0
   -4.2426    4.3222    0.0000 O   0  0  0  0  0  0  0  0  0  0  0  0
   -3.1092    3.1732    0.0000 C   0  0  1  0  0  0  0  0  0  0  0  0
   -2.7296    3.9057    0.0000 O   0  0  0  0  0  0  0  0  0  0  0  0
    3.8136   -1.4224    0.0000 C   0  0  0  0  0  0  0  0  0  0  0  0
    4.5459   -1.0424    0.0000 O   0  0  0  0  0  0  0  0  0  0  0  0
    3.7766   -2.2466    0.0000 O   0  0  0  0  0  0  0  0  0  0  0  0
    4.4718   -2.6907    0.0000 C   0  0  2  0  0  0  0  0  0  0  0  0
    5.2041   -2.3107    0.0000 O   0  0  0  0  0  0  0  0  0  0  0  0
    5.8993   -2.7549    0.0000 C   0  0  2  0  0  0  0  0  0  0  0  0
    6.6316   -2.3748    0.0000 C   0  0  0  0  0  0  0  0  0  0  0  0
    7.3268   -2.8190    0.0000 O   0  0  0  0  0  0  0  0  0  0  0  0
    5.8623   -3.5790    0.0000 C   0  0  1  0  0  0  0  0  0  0  0  0
    6.5575   -4.0232    0.0000 O   0  0  0  0  0  0  0  0  0  0  0  0
    5.1300   -3.9590    0.0000 C   0  0  2  0  0  0  0  0  0  0  0  0
    5.0930   -4.7832    0.0000 O   0  0  0  0  0  0  0  0  0  0  0  0
    4.4348   -3.5149    0.0000 C   0  0  1  0  0  0  0  0  0  0  0  0
    3.7025   -3.8949    0.0000 O   0  0  0  0  0  0  0  0  0  0  0  0
    2.5562    1.5595    0.0000 H   0  0  0  0  0  0  0  0  0  0  0  0
    0.7834    1.0195    0.0000 H   0  0  0  0  0  0  0  0  0  0  0  0
    1.5139    1.8013    0.0000 H   0  0  0  0  0  0  0  0  0  0  0  0
    2.3038    1.6169    0.0000 H   0  0  0  0  0  0  0  0  0  0  0  0
    3.3481    1.3840    0.0000 H   0  0  0  0  0  0  0  0  0  0  0  0
    4.1533    1.2044    0.0000 H   0  0  0  0  0  0  0  0  0  0  0  0
    4.4737    0.1835    0.0000 H   0  0  0  0  0  0  0  0  0  0  0  0
    4.7208   -0.6036    0.0000 H   0  0  0  0  0  0  0  0  0  0  0  0
    3.9970   -1.3916    0.0000 H   0  0  0  0  0  0  0  0  0  0  0  0
    1.7407   -1.8783    0.0000 H   0  0  0  0  0  0  0  0  0  0  0  0
    3.4520   -2.5897    0.0000 H   0  0  0  0  0  0  0  0  0  0  0  0
    2.3910   -2.7280    0.0000 H   0  0  0  0  0  0  0  0  0  0  0  0
    3.0370   -0.0107    0.0000 H   0  0  0  0  0  0  0  0  0  0  0  0
    2.0961   -2.4386    0.0000 H   0  0  0  0  0  0  0  0  0  0  0  0
    1.0475   -2.2215    0.0000 H   0  0  0  0  0  0  0  0  0  0  0  0
    0.2580   -2.0699    0.0000 H   0  0  0  0  0  0  0  0  0  0  0  0
   -0.1044   -1.0755    0.0000 H   0  0  0  0  0  0  0  0  0  0  0  0
   -0.3419   -1.9034    0.0000 H   0  0  0  0  0  0  0  0  0  0  0  0
   -1.1812   -1.1794    0.0000 H   0  0  0  0  0  0  0  0  0  0  0  0
   -2.2574    0.4156    0.0000 H   0  0  0  0  0  0  0  0  0  0  0  0
   -1.9573   -1.3465    0.0000 H   0  0  0  0  0  0  0  0  0  0  0  0
    0.9120    0.8400    0.0000 H   0  0  0  0  0  0  0  0  0  0  0  0
    0.1052    1.1345    0.0000 H   0  0  0  0  0  0  0  0  0  0  0  0
   -0.1966    2.2007    0.0000 H   0  0  0  0  0  0  0  0  0  0  0  0
    0.8561    2.0028    0.0000 H   0  0  0  0  0  0  0  0  0  0  0  0
    1.7244    1.8218    0.0000 H   0  0  0  0  0  0  0  0  0  0  0  0
    2.0458    0.7878    0.0000 H   0  0  0  0  0  0  0  0  0  0  0  0
    1.5589   -0.8380    0.0000 H   0  0  0  0  0  0  0  0  0  0  0  0
   -0.1494    1.2222    0.0000 H   0  0  0  0  0  0  0  0  0  0  0  0
    0.6371    2.4152    0.0000 H   0  0  0  0  0  0  0  0  0  0  0  0
    1.3747    2.7847    0.0000 H   0  0  0  0  0  0  0  0  0  0  0  0
    1.4380    3.8529    0.0000 H   0  0  0  0  0  0  0  0  0  0  0  0
    1.3974    4.6317    0.0000 H   0  0  0  0  0  0  0  0  0  0  0  0
    0.0116    3.9374    0.0000 H   0  0  0  0  0  0  0  0  0  0  0  0
   -0.0290    4.7162    0.0000 H   0  0  0  0  0  0  0  0  0  0  0  0
   -1.6195    4.1568    0.0000 H   0  0  0  0  0  0  0  0  0  0  0  0
   -1.4294    3.7774    0.0000 H   0  0  0  0  0  0  0  0  0  0  0  0
   -0.6429    4.9704    0.0000 H   0  0  0  0  0  0  0  0  0  0  0  0
   -0.7354    6.9969    0.0000 H   0  0  0  0  0  0  0  0  0  0  0  0
    0.1580    6.4081    0.0000 H   0  0  0  0  0  0  0  0  0  0  0  0
   -0.1673    4.5065    0.0000 H   0  0  0  0  0  0  0  0  0  0  0  0
   -1.2684    6.4926    0.0000 H   0  0  0  0  0  0  0  0  0  0  0  0
   -1.3090    7.2714    0.0000 H   0  0  0  0  0  0  0  0  0  0  0  0
   -2.8995    6.7120    0.0000 H   0  0  0  0  0  0  0  0  0  0  0  0
   -3.5942    7.0662    0.0000 H   0  0  0  0  0  0  0  0  0  0  0  0
   -3.0749    3.7522    0.0000 H   0  0  0  0  0  0  0  0  0  0  0  0
   -4.5591    4.9846    0.0000 H   0  0  0  0  0  0  0  0  0  0  0  0
   -1.7949    1.1970    0.0000 H   0  0  0  0  0  0  0  0  0  0  0  0
   -3.2213    1.2816    0.0000 H   0  0  0  0  0  0  0  0  0  0  0  0
   -4.6477    1.3661    0.0000 H   0  0  0  0  0  0  0  0  0  0  0  0
   -6.2155    2.6536    0.0000 H   0  0  0  0  0  0  0  0  0  0  0  0
   -6.2788    1.5855    0.0000 H   0  0  0  0  0  0  0  0  0  0  0  0
   -6.2382    0.8066    0.0000 H   0  0  0  0  0  0  0  0  0  0  0  0
   -5.4922    2.7785    0.0000 H   0  0  0  0  0  0  0  0  0  0  0  0
   -5.1672    4.6801    0.0000 H   0  0  0  0  0  0  0  0  0  0  0  0
   -4.8296    3.9113    0.0000 H   0  0  0  0  0  0  0  0  0  0  0  0
   -3.7964    5.1835    0.0000 H   0  0  0  0  0  0  0  0  0  0  0  0
   -2.0776    2.8892    0.0000 H   0  0  0  0  0  0  0  0  0  0  0  0
   -1.7606    3.9498    0.0000 H   0  0  0  0  0  0  0  0  0  0  0  0
    4.5198   -1.6218    0.0000 H   0  0  0  0  0  0  0  0  0  0  0  0
    5.9473   -1.6860    0.0000 H   0  0  0  0  0  0  0  0  0  0  0  0
    6.6796   -1.3059    0.0000 H   0  0  0  0  0  0  0  0  0  0  0  0
    7.5813   -1.8820    0.0000 H   0  0  0  0  0  0  0  0  0  0  0  0
    7.2832   -3.7880    0.0000 H   0  0  0  0  0  0  0  0  0  0  0  0
    6.8120   -3.0861    0.0000 H   0  0  0  0  0  0  0  0  0  0  0  0
    6.5139   -4.9922    0.0000 H   0  0  0  0  0  0  0  0  0  0  0  0
    6.0317   -4.5351    0.0000 H   0  0  0  0  0  0  0  0  0  0  0  0
    4.2320   -5.2300    0.0000 H   0  0  0  0  0  0  0  0  0  0  0  0
    3.5331   -2.9388    0.0000 H   0  0  0  0  0  0  0  0  0  0  0  0
    2.8851   -3.3727    0.0000 H   0  0  0  0  0  0  0  0  0  0  0  0
  1 68  1  0  0  0  0
  1 69  1  0  0  0  0
  1 70  1  0  0  0  0
  2  1  1  1  0  0  0
  2  3  1  0  0  0  0
  2  8  1  0  0  0  0
  2 19  1  0  0  0  0
  3  4  1  0  0  0  0
  3 71  1  0  0  0  0
  3 72  1  0  0  0  0
  4  5  1  0  0  0  0
  4 73  1  0  0  0  0
  4 74  1  0  0  0  0
  5 75  1  0  0  0  0
  5 76  1  0  0  0  0
  6  5  1  0  0  0  0
  6  7  1  0  0  0  0
  6  8  1  0  0  0  0
  6 54  1  1  0  0  0
  7 77  1  0  0  0  0
  7 78  1  0  0  0  0
  7 79  1  0  0  0  0
  8  9  1  0  0  0  0
  8 80  1  0  0  0  0
  9 10  1  0  0  0  0
  9 81  1  0  0  0  0
  9 82  1  0  0  0  0
 10 83  1  0  0  0  0
 10 84  1  0  0  0  0
 11 10  1  1  0  0  0
 11 12  1  0  0  0  0
 11 16  1  0  0  0  0
 11 19  1  0  0  0  0
 12 13  1  0  0  0  0
 12 85  1  0  0  0  0
 12 86  1  0  0  0  0
 13 14  2  0  0  0  0
 14 87  1  0  0  0  0
 14 88  1  0  0  0  0
 15 13  1  0  0  0  0
 15 16  1  0  0  0  0
 15 17  1  0  0  0  0
 15 20  1  6  0  0  0
 16 89  1  0  0  0  0
 16 90  1  0  0  0  0
 17 18  1  0  0  0  0
 17 91  1  0  0  0  0
 17 92  1  0  0  0  0
 18 19  1  0  0  0  0
 18 93  1  0  0  0  0
 18 94  1  0  0  0  0
 19 95  1  0  0  0  0
 21 20  1  0  0  0  0
 21 22  1  0  0  0  0
 21 96  1  6  0  0  0
 23 22  1  0  0  0  0
 23 24  1  0  0  0  0
 23 97  1  6  0  0  0
 24 25  1  0  0  0  0
 24 98  1  0  0  0  0
 24 99  1  0  0  0  0
 25100  1  0  0  0  0
 26 23  1  0  0  0  0
 26 27  1  0  0  0  0
 26 28  1  0  0  0  0
 26101  1  1  0  0  0
 27102  1  0  0  0  0
 28 29  1  0  0  0  0
 28 41  1  0  0  0  0
 28103  1  6  0  0  0
 30 29  1  0  0  0  0
 30 31  1  0  0  0  0
 30104  1  6  0  0  0
 32 31  1  0  0  0  0
 32 33  1  0  0  0  0
 32105  1  6  0  0  0
 33 34  1  0  0  0  0
 33106  1  0  0  0  0
 33107  1  0  0  0  0
 34108  1  0  0  0  0
 35 32  1  0  0  0  0
 35 36  1  0  0  0  0
 35 37  1  0  0  0  0
 35109  1  1  0  0  0
 36110  1  0  0  0  0
 37 38  1  0  0  0  0
 37 39  1  0  0  0  0
 37111  1  6  0  0  0
 38112  1  0  0  0  0
 39 30  1  0  0  0  0
 39 40  1  0  0  0  0
 39113  1  1  0  0  0
 40114  1  0  0  0  0
 41 21  1  0  0  0  0
 41 42  1  0  0  0  0
 41115  1  1  0  0  0
 43 42  1  0  0  0  0
 43 44  1  0  0  0  0
 43116  1  1  0  0  0
 45 44  1  0  0  0  0
 45 46  1  0  0  0  0
 45117  1  1  0  0  0
 46 47  1  0  0  0  0
 46118  1  0  0  0  0
 46119  1  0  0  0  0
 47120  1  0  0  0  0
 48 45  1  0  0  0  0
 48 49  1  0  0  0  0
 48 50  1  0  0  0  0
 48121  1  6  0  0  0
 49122  1  0  0  0  0
 50 51  1  0  0  0  0
 50 52  1  0  0  0  0
 50123  1  1  0  0  0
 51124  1  0  0  0  0
 52 43  1  0  0  0  0
 52 53  1  0  0  0  0
 52125  1  6  0  0  0
 53126  1  0  0  0  0
 54 55  2  0  0  0  0
 54 56  1  0  0  0  0
 57 56  1  0  0  0  0
 57 58  1  0  0  0  0
 57127  1  1  0  0  0
 59 58  1  0  0  0  0
 59 60  1  0  0  0  0
 59128  1  1  0  0  0
 60 61  1  0  0  0  0
 60129  1  0  0  0  0
 60130  1  0  0  0  0
 61131  1  0  0  0  0
 62 59  1  0  0  0  0
 62 63  1  0  0  0  0
 62 64  1  0  0  0  0
 62132  1  6  0  0  0
 63133  1  0  0  0  0
 64 65  1  0  0  0  0
 64 66  1  0  0  0  0
 64134  1  1  0  0  0
 65135  1  0  0  0  0
 66 57  1  0  0  0  0
 66 67  1  0  0  0  0
 66136  1  6  0  0  0
 67137  1  0  0  0  0
M  END
$$$$
Row30
 OpenBabel08252322323D

137144  0  0  1  0  0  0  0  0999 V2000
    3.4430   -0.9306   -2.6184 C   0  0  0  0  0  0  0  0  0  0  0  0
    3.6036   -0.2218   -4.0200 C   0  0  1  0  0  0  0  0  0  0  0  0
    5.1342    0.1944   -4.1450 C   0  0  0  0  0  0  0  0  0  0  0  0
    6.1052   -0.8733   -4.7635 C   0  0  0  0  0  0  0  0  0  0  0  0
    5.6365   -2.3482   -4.6127 C   0  0  0  0  0  0  0  0  0  0  0  0
    4.1460   -2.6363   -5.1109 C   0  0  2  0  0  0  0  0  0  0  0  0
    4.2471   -3.3331   -6.5188 C   0  0  0  0  0  0  0  0  0  0  0  0
    3.3440   -1.2411   -5.2371 C   0  0  1  0  0  0  0  0  0  0  0  0
    1.8814   -1.3370   -5.8161 C   0  0  0  0  0  0  0  0  0  0  0  0
    0.8422   -0.3991   -5.1867 C   0  0  0  0  0  0  0  0  0  0  0  0
    1.3751    1.0458   -4.9846 C   0  0  1  0  0  0  0  0  0  0  0  0
    1.6500    1.8817   -6.2761 C   0  0  0  0  0  0  0  0  0  0  0  0
    1.3331    3.2572   -5.8894 C   0  0  0  0  0  0  0  0  0  0  0  0
    1.5741    4.3030   -6.6946 C   0  0  0  0  0  0  0  0  0  0  0  0
    0.7779    3.3499   -4.5340 C   0  0  1  0  0  0  0  0  0  0  0  0
    0.2095    1.9153   -4.4338 C   0  0  0  0  0  0  0  0  0  0  0  0
    1.9898    3.5264   -3.5353 C   0  0  0  0  0  0  0  0  0  0  0  0
    3.1463    2.4842   -3.7398 C   0  0  0  0  0  0  0  0  0  0  0  0
    2.5771    1.0343   -3.9534 C   0  0  2  0  0  0  0  0  0  0  0  0
   -0.2483    4.3929   -4.4364 O   0  0  0  0  0  0  0  0  0  0  0  0
   -1.2456    4.4573   -3.3683 C   0  0  2  0  0  0  0  0  0  0  0  0
   -0.6484    4.1174   -2.1012 O   0  0  0  0  0  0  0  0  0  0  0  0
   -1.5009    4.2240   -0.9458 C   0  0  2  0  0  0  0  0  0  0  0  0
   -0.6457    3.8851    0.3046 C   0  0  0  0  0  0  0  0  0  0  0  0
    0.4148    4.8167    0.4812 O   0  0  0  0  0  0  0  0  0  0  0  0
   -2.6809    3.2295   -1.0996 C   0  0  1  0  0  0  0  0  0  0  0  0
   -3.5705    3.3261    0.0168 O   0  0  0  0  0  0  0  0  0  0  0  0
   -3.4827    3.4301   -2.4172 C   0  0  2  0  0  0  0  0  0  0  0  0
   -4.2579    2.2074   -2.4863 O   0  0  0  0  0  0  0  0  0  0  0  0
   -5.2199    1.9994   -3.5316 C   0  0  2  0  0  0  0  0  0  0  0  0
   -6.3507    2.8822   -3.3558 O   0  0  0  0  0  0  0  0  0  0  0  0
   -7.4128    2.6999   -4.3244 C   0  0  2  0  0  0  0  0  0  0  0  0
   -8.5237    3.7327   -4.0151 C   0  0  0  0  0  0  0  0  0  0  0  0
   -8.0276    5.0596   -4.1561 O   0  0  0  0  0  0  0  0  0  0  0  0
   -7.9503    1.2355   -4.2832 C   0  0  1  0  0  0  0  0  0  0  0  0
   -8.9274    1.0156   -5.3009 O   0  0  0  0  0  0  0  0  0  0  0  0
   -6.7829    0.2281   -4.4638 C   0  0  2  0  0  0  0  0  0  0  0  0
   -7.2477   -1.1122   -4.3162 O   0  0  0  0  0  0  0  0  0  0  0  0
   -5.6451    0.5101   -3.4496 C   0  0  1  0  0  0  0  0  0  0  0  0
   -4.5280   -0.3352   -3.7279 O   0  0  0  0  0  0  0  0  0  0  0  0
   -2.5722    3.6641   -3.6718 C   0  0  1  0  0  0  0  0  0  0  0  0
   -3.4219    4.2844   -4.6749 O   0  0  0  0  0  0  0  0  0  0  0  0
   -2.8735    4.5545   -5.9820 C   0  0  2  0  0  0  0  0  0  0  0  0
   -2.3720    5.9099   -5.9284 O   0  0  0  0  0  0  0  0  0  0  0  0
   -1.8152    6.4133   -7.1633 C   0  0  2  0  0  0  0  0  0  0  0  0
   -1.2804    7.8448   -6.9140 C   0  0  0  0  0  0  0  0  0  0  0  0
   -0.1745    7.8230   -6.0153 O   0  0  0  0  0  0  0  0  0  0  0  0
   -2.8947    6.3741   -8.2873 C   0  0  1  0  0  0  0  0  0  0  0  0
   -2.3614    6.8139   -9.5365 O   0  0  0  0  0  0  0  0  0  0  0  0
   -3.4469    4.9311   -8.4345 C   0  0  2  0  0  0  0  0  0  0  0  0
   -4.4667    4.8676   -9.4330 O   0  0  0  0  0  0  0  0  0  0  0  0
   -3.9762    4.4101   -7.0712 C   0  0  1  0  0  0  0  0  0  0  0  0
   -4.3540    3.0441   -7.2269 O   0  0  0  0  0  0  0  0  0  0  0  0
    3.4360   -3.6305   -4.2027 C   0  0  0  0  0  0  0  0  0  0  0  0
    2.3330   -4.1332   -4.5250 O   0  0  0  0  0  0  0  0  0  0  0  0
    3.9429   -4.0741   -3.0038 O   0  0  0  0  0  0  0  0  0  0  0  0
    3.1926   -4.6354   -1.9037 C   0  0  2  0  0  0  0  0  0  0  0  0
    2.3161   -3.5738   -1.4645 O   0  0  0  0  0  0  0  0  0  0  0  0
    1.5847   -3.7445   -0.2330 C   0  0  2  0  0  0  0  0  0  0  0  0
    0.7911   -2.4339    0.0191 C   0  0  0  0  0  0  0  0  0  0  0  0
   -0.0822   -2.1504   -1.0703 O   0  0  0  0  0  0  0  0  0  0  0  0
    2.5669   -4.0627    0.9312 C   0  0  1  0  0  0  0  0  0  0  0  0
    1.8656   -4.2908    2.1546 O   0  0  0  0  0  0  0  0  0  0  0  0
    3.4383   -5.2938    0.5662 C   0  0  2  0  0  0  0  0  0  0  0  0
    4.3781   -5.5463    1.6098 O   0  0  0  0  0  0  0  0  0  0  0  0
    4.1758   -5.0810   -0.7856 C   0  0  1  0  0  0  0  0  0  0  0  0
    4.8477   -6.2815   -1.1697 O   0  0  0  0  0  0  0  0  0  0  0  0
    4.0910   -1.7808   -2.5724 H   0  0  0  0  0  0  0  0  0  0  0  0
    2.4288   -1.2479   -2.4933 H   0  0  0  0  0  0  0  0  0  0  0  0
    3.7004   -0.2434   -1.8396 H   0  0  0  0  0  0  0  0  0  0  0  0
    5.4891    0.4252   -3.1623 H   0  0  0  0  0  0  0  0  0  0  0  0
    5.1477    1.0174   -4.8287 H   0  0  0  0  0  0  0  0  0  0  0  0
    7.0563   -0.7758   -4.2830 H   0  0  0  0  0  0  0  0  0  0  0  0
    6.1399   -0.6749   -5.8144 H   0  0  0  0  0  0  0  0  0  0  0  0
    5.6974   -2.6118   -3.5775 H   0  0  0  0  0  0  0  0  0  0  0  0
    6.2793   -2.9321   -5.2378 H   0  0  0  0  0  0  0  0  0  0  0  0
    4.7408   -2.6784   -7.2062 H   0  0  0  0  0  0  0  0  0  0  0  0
    3.2640   -3.5531   -6.8793 H   0  0  0  0  0  0  0  0  0  0  0  0
    4.8052   -4.2415   -6.4279 H   0  0  0  0  0  0  0  0  0  0  0  0
    3.8147   -0.7326   -6.0524 H   0  0  0  0  0  0  0  0  0  0  0  0
    1.5406   -2.3419   -5.6782 H   0  0  0  0  0  0  0  0  0  0  0  0
    1.9576   -1.0352   -6.8398 H   0  0  0  0  0  0  0  0  0  0  0  0
    0.5583   -0.7946   -4.2339 H   0  0  0  0  0  0  0  0  0  0  0  0
    0.0114   -0.3436   -5.8587 H   0  0  0  0  0  0  0  0  0  0  0  0
    1.0199    1.5585   -7.0783 H   0  0  0  0  0  0  0  0  0  0  0  0
    2.6558    1.7762   -6.6256 H   0  0  0  0  0  0  0  0  0  0  0  0
    1.9671    4.1493   -7.6364 H   0  0  0  0  0  0  0  0  0  0  0  0
    1.3665    5.2611   -6.3722 H   0  0  0  0  0  0  0  0  0  0  0  0
   -0.0164    1.6599   -3.4196 H   0  0  0  0  0  0  0  0  0  0  0  0
   -0.7076    1.7839   -4.9691 H   0  0  0  0  0  0  0  0  0  0  0  0
    1.6195    3.4257   -2.5365 H   0  0  0  0  0  0  0  0  0  0  0  0
    2.4081    4.4927   -3.7256 H   0  0  0  0  0  0  0  0  0  0  0  0
    3.7757    2.4876   -2.8745 H   0  0  0  0  0  0  0  0  0  0  0  0
    3.7006    2.7614   -4.6120 H   0  0  0  0  0  0  0  0  0  0  0  0
    2.1734    0.7671   -2.9992 H   0  0  0  0  0  0  0  0  0  0  0  0
   -1.5750    5.4737   -3.3114 H   0  0  0  0  0  0  0  0  0  0  0  0
   -1.9044    5.2098   -0.8443 H   0  0  0  0  0  0  0  0  0  0  0  0
   -0.2316    2.9055    0.1871 H   0  0  0  0  0  0  0  0  0  0  0  0
   -1.2789    3.9312    1.1659 H   0  0  0  0  0  0  0  0  0  0  0  0
    1.0009    4.7896   -0.2912 H   0  0  0  0  0  0  0  0  0  0  0  0
   -2.2427    2.2541   -1.1372 H   0  0  0  0  0  0  0  0  0  0  0  0
   -3.9623    4.2131    0.0422 H   0  0  0  0  0  0  0  0  0  0  0  0
   -4.0855    4.3141   -2.4163 H   0  0  0  0  0  0  0  0  0  0  0  0
   -4.8075    2.2176   -4.4945 H   0  0  0  0  0  0  0  0  0  0  0  0
   -7.0477    2.8613   -5.3171 H   0  0  0  0  0  0  0  0  0  0  0  0
   -8.8667    3.5903   -3.0116 H   0  0  0  0  0  0  0  0  0  0  0  0
   -9.3289    3.5903   -4.7052 H   0  0  0  0  0  0  0  0  0  0  0  0
   -7.2964    5.1992   -3.5342 H   0  0  0  0  0  0  0  0  0  0  0  0
   -8.4100    1.0843   -3.3289 H   0  0  0  0  0  0  0  0  0  0  0  0
   -8.5226    1.1498   -6.1721 H   0  0  0  0  0  0  0  0  0  0  0  0
   -6.3939    0.3513   -5.4529 H   0  0  0  0  0  0  0  0  0  0  0  0
   -7.6028   -1.2346   -3.4219 H   0  0  0  0  0  0  0  0  0  0  0  0
   -5.9985    0.3056   -2.4605 H   0  0  0  0  0  0  0  0  0  0  0  0
   -4.2018   -0.1555   -4.6236 H   0  0  0  0  0  0  0  0  0  0  0  0
   -2.1871    2.7333   -4.0327 H   0  0  0  0  0  0  0  0  0  0  0  0
   -2.0958    3.8653   -6.2370 H   0  0  0  0  0  0  0  0  0  0  0  0
   -1.0012    5.8008   -7.4907 H   0  0  0  0  0  0  0  0  0  0  0  0
   -2.0619    8.4429   -6.4940 H   0  0  0  0  0  0  0  0  0  0  0  0
   -0.9561    8.2568   -7.8467 H   0  0  0  0  0  0  0  0  0  0  0  0
   -0.4562    7.4511   -5.1649 H   0  0  0  0  0  0  0  0  0  0  0  0
   -3.6860    7.0388   -8.0101 H   0  0  0  0  0  0  0  0  0  0  0  0
   -1.6408    6.2232   -9.8064 H   0  0  0  0  0  0  0  0  0  0  0  0
   -2.6431    4.2990   -8.7497 H   0  0  0  0  0  0  0  0  0  0  0  0
   -5.2102    5.4333   -9.1722 H   0  0  0  0  0  0  0  0  0  0  0  0
   -4.8246    4.9831   -6.7601 H   0  0  0  0  0  0  0  0  0  0  0  0
   -3.5841    2.5258   -7.5089 H   0  0  0  0  0  0  0  0  0  0  0  0
    2.6274   -5.5024   -2.1754 H   0  0  0  0  0  0  0  0  0  0  0  0
    0.9037   -4.5675   -0.2947 H   0  0  0  0  0  0  0  0  0  0  0  0
    1.4805   -1.6239    0.1353 H   0  0  0  0  0  0  0  0  0  0  0  0
    0.2038   -2.5552    0.9052 H   0  0  0  0  0  0  0  0  0  0  0  0
    0.4382   -2.0380   -1.8811 H   0  0  0  0  0  0  0  0  0  0  0  0
    3.2025   -3.2141    1.0751 H   0  0  0  0  0  0  0  0  0  0  0  0
    1.2796   -5.0571    2.0533 H   0  0  0  0  0  0  0  0  0  0  0  0
    2.7949   -6.1418    0.4570 H   0  0  0  0  0  0  0  0  0  0  0  0
    4.9628   -4.7790    1.7110 H   0  0  0  0  0  0  0  0  0  0  0  0
    4.8953   -4.3005   -0.6514 H   0  0  0  0  0  0  0  0  0  0  0  0
    4.1976   -6.9909   -1.2921 H   0  0  0  0  0  0  0  0  0  0  0  0
  1 68  1  0  0  0  0
  1 69  1  0  0  0  0
  1 70  1  0  0  0  0
  2  1  1  1  0  0  0
  2  3  1  0  0  0  0
  2  8  1  0  0  0  0
  2 19  1  0  0  0  0
  3  4  1  0  0  0  0
  3 71  1  0  0  0  0
  3 72  1  0  0  0  0
  4  5  1  0  0  0  0
  4 73  1  0  0  0  0
  4 74  1  0  0  0  0
  5  6  1  0  0  0  0
  5 75  1  0  0  0  0
  5 76  1  0  0  0  0
  6  7  1  0  0  0  0
  6  8  1  0  0  0  0
  6 54  1  1  0  0  0
  7 77  1  0  0  0  0
  7 78  1  0  0  0  0
  7 79  1  0  0  0  0
  8  9  1  0  0  0  0
  8 80  1  6  0  0  0
  9 10  1  0  0  0  0
  9 81  1  0  0  0  0
  9 82  1  0  0  0  0
 10 83  1  0  0  0  0
 10 84  1  0  0  0  0
 11 10  1  6  0  0  0
 11 12  1  0  0  0  0
 11 16  1  0  0  0  0
 11 19  1  0  0  0  0
 12 13  1  0  0  0  0
 12 85  1  0  0  0  0
 12 86  1  0  0  0  0
 13 14  2  0  0  0  0
 13 15  1  0  0  0  0
 14 87  1  0  0  0  0
 14 88  1  0  0  0  0
 15 16  1  0  0  0  0
 15 17  1  0  0  0  0
 15 20  1  1  0  0  0
 16 89  1  0  0  0  0
 16 90  1  0  0  0  0
 17 18  1  0  0  0  0
 17 91  1  0  0  0  0
 17 92  1  0  0  0  0
 18 19  1  0  0  0  0
 18 93  1  0  0  0  0
 18 94  1  0  0  0  0
 19 95  1  1  0  0  0
 20 21  1  0  0  0  0
 21 22  1  0  0  0  0
 21 41  1  0  0  0  0
 21 96  1  1  0  0  0
 22 23  1  0  0  0  0
 23 24  1  0  0  0  0
 23 26  1  0  0  0  0
 23 97  1  1  0  0  0
 24 25  1  0  0  0  0
 24 98  1  0  0  0  0
 24 99  1  0  0  0  0
 25100  1  0  0  0  0
 26 27  1  0  0  0  0
 26 28  1  0  0  0  0
 26101  1  6  0  0  0
 27102  1  0  0  0  0
 28 29  1  0  0  0  0
 28 41  1  0  0  0  0
 28103  1  1  0  0  0
 29 30  1  0  0  0  0
 30 31  1  0  0  0  0
 30 39  1  0  0  0  0
 30104  1  6  0  0  0
 31 32  1  0  0  0  0
 32 33  1  0  0  0  0
 32 35  1  0  0  0  0
 32105  1  6  0  0  0
 33 34  1  0  0  0  0
 33106  1  0  0  0  0
 33107  1  0  0  0  0
 34108  1  0  0  0  0
 35 36  1  0  0  0  0
 35 37  1  0  0  0  0
 35109  1  1  0  0  0
 36110  1  0  0  0  0
 37 38  1  0  0  0  0
 37 39  1  0  0  0  0
 37111  1  6  0  0  0
 38112  1  0  0  0  0
 39 40  1  0  0  0  0
 39113  1  1  0  0  0
 40114  1  0  0  0  0
 41 42  1  0  0  0  0
 41115  1  6  0  0  0
 42 43  1  0  0  0  0
 43 44  1  0  0  0  0
 43 52  1  0  0  0  0
 43116  1  6  0  0  0
 44 45  1  0  0  0  0
 45 46  1  0  0  0  0
 45 48  1  0  0  0  0
 45117  1  6  0  0  0
 46 47  1  0  0  0  0
 46118  1  0  0  0  0
 46119  1  0  0  0  0
 47120  1  0  0  0  0
 48 49  1  0  0  0  0
 48 50  1  0  0  0  0
 48121  1  1  0  0  0
 49122  1  0  0  0  0
 50 51  1  0  0  0  0
 50 52  1  0  0  0  0
 50123  1  6  0  0  0
 51124  1  0  0  0  0
 52 53  1  0  0  0  0
 52125  1  1  0  0  0
 53126  1  0  0  0  0
 54 55  2  0  0  0  0
 54 56  1  0  0  0  0
 56 57  1  0  0  0  0
 57 58  1  0  0  0  0
 57 66  1  0  0  0  0
 57127  1  6  0  0  0
 58 59  1  0  0  0  0
 59 60  1  0  0  0  0
 59 62  1  0  0  0  0
 59128  1  6  0  0  0
 60 61  1  0  0  0  0
 60129  1  0  0  0  0
 60130  1  0  0  0  0
 61131  1  0  0  0  0
 62 63  1  0  0  0  0
 62 64  1  0  0  0  0
 62132  1  1  0  0  0
 63133  1  0  0  0  0
 64 65  1  0  0  0  0
 64 66  1  0  0  0  0
 64134  1  6  0  0  0
 65135  1  0  0  0  0
 66 67  1  0  0  0  0
 66136  1  1  0  0  0
 67137  1  0  0  0  0
M  END
$$$$
Row31
 OpenBabel08252322322D

158166  0  0  1  0  0  0  0  0999 V2000
    1.8257    0.7777    0.0000 C   0  0  0  0  0  0  0  0  0  0  0  0
    2.0661   -0.0115    0.0000 C   0  0  1  0  0  0  0  0  0  0  0  0
    2.6242    0.5960    0.0000 C   0  0  0  0  0  0  0  0  0  0  0  0
    3.4294    0.4164    0.0000 C   0  0  0  0  0  0  0  0  0  0  0  0
    3.6765   -0.3707    0.0000 C   0  0  0  0  0  0  0  0  0  0  0  0
    3.1184   -0.9782    0.0000 C   0  0  2  0  0  0  0  0  0  0  0  0
    2.8017   -1.7400    0.0000 C   0  0  0  0  0  0  0  0  0  0  0  0
    2.3132   -0.7987    0.0000 C   0  0  3  0  0  0  0  0  0  0  0  0
    1.7596   -1.4229    0.0000 C   0  0  0  0  0  0  0  0  0  0  0  0
    0.9506   -1.2543    0.0000 C   0  0  0  0  0  0  0  0  0  0  0  0
    0.6469   -0.4671    0.0000 C   0  0  1  0  0  0  0  0  0  0  0  0
   -0.1637   -0.8483    0.0000 C   0  0  0  0  0  0  0  0  0  0  0  0
   -0.7854   -0.2403    0.0000 C   0  0  0  0  0  0  0  0  0  0  0  0
   -1.5987   -0.3788    0.0000 C   0  0  0  0  0  0  0  0  0  0  0  0
   -0.4028    0.5335    0.0000 C   0  0  2  0  0  0  0  0  0  0  0  0
    0.1726    0.0666    0.0000 C   0  0  0  0  0  0  0  0  0  0  0  0
    0.1586    1.1914    0.0000 C   0  0  0  0  0  0  0  0  0  0  0  0
    1.0038    1.0309    0.0000 C   0  0  0  0  0  0  0  0  0  0  0  0
    1.2474    0.1857    0.0000 C   0  0  3  0  0  0  0  0  0  0  0  0
   -1.0916    0.9875    0.0000 O   0  0  0  0  0  0  0  0  0  0  0  0
   -1.0428    1.8111    0.0000 C   0  0  2  0  0  0  0  0  0  0  0  0
   -0.3051    2.1806    0.0000 O   0  0  0  0  0  0  0  0  0  0  0  0
   -0.2563    3.0041    0.0000 C   0  0  2  0  0  0  0  0  0  0  0  0
    0.4813    3.3736    0.0000 C   0  0  0  0  0  0  0  0  0  0  0  0
    0.5301    4.1972    0.0000 O   0  0  0  0  0  0  0  0  0  0  0  0
   -0.9451    3.4582    0.0000 C   0  0  1  0  0  0  0  0  0  0  0  0
   -0.8963    4.2817    0.0000 O   0  0  0  0  0  0  0  0  0  0  0  0
   -1.6828    3.0887    0.0000 C   0  0  2  0  0  0  0  0  0  0  0  0
   -2.3716    3.5427    0.0000 O   0  0  0  0  0  0  0  0  0  0  0  0
   -2.3228    4.3663    0.0000 C   0  0  2  0  0  0  0  0  0  0  0  0
   -1.5851    4.7358    0.0000 O   0  0  0  0  0  0  0  0  0  0  0  0
   -1.5363    5.5593    0.0000 C   0  0  2  0  0  0  0  0  0  0  0  0
   -0.7987    5.9288    0.0000 C   0  0  0  0  0  0  0  0  0  0  0  0
   -0.1099    5.4748    0.0000 O   0  0  0  0  0  0  0  0  0  0  0  0
   -2.2251    6.0134    0.0000 C   0  0  1  0  0  0  0  0  0  0  0  0
   -2.1763    6.8369    0.0000 O   0  0  0  0  0  0  0  0  0  0  0  0
   -2.9628    5.6439    0.0000 C   0  0  2  0  0  0  0  0  0  0  0  0
   -3.6516    6.0979    0.0000 O   0  0  0  0  0  0  0  0  0  0  0  0
   -3.0116    4.8203    0.0000 C   0  0  1  0  0  0  0  0  0  0  0  0
   -3.7492    4.4508    0.0000 O   0  0  0  0  0  0  0  0  0  0  0  0
   -1.7316    2.2651    0.0000 C   0  0  1  0  0  0  0  0  0  0  0  0
   -2.4692    1.8956    0.0000 O   0  0  0  0  0  0  0  0  0  0  0  0
   -3.1580    2.3497    0.0000 C   0  0  2  0  0  0  0  0  0  0  0  0
   -3.8956    1.9802    0.0000 O   0  0  0  0  0  0  0  0  0  0  0  0
   -4.5844    2.4342    0.0000 C   0  0  2  0  0  0  0  0  0  0  0  0
   -5.3221    2.0647    0.0000 C   0  0  0  0  0  0  0  0  0  0  0  0
   -5.3709    1.2411    0.0000 O   0  0  0  0  0  0  0  0  0  0  0  0
   -4.5356    3.2578    0.0000 C   0  0  1  0  0  0  0  0  0  0  0  0
   -5.2245    3.7118    0.0000 O   0  0  0  0  0  0  0  0  0  0  0  0
   -3.7980    3.6273    0.0000 C   0  0  2  0  0  0  0  0  0  0  0  0
   -4.2426    4.3222    0.0000 O   0  0  0  0  0  0  0  0  0  0  0  0
   -3.1092    3.1732    0.0000 C   0  0  1  0  0  0  0  0  0  0  0  0
   -2.7296    3.9057    0.0000 O   0  0  0  0  0  0  0  0  0  0  0  0
    3.8136   -1.4224    0.0000 C   0  0  0  0  0  0  0  0  0  0  0  0
    4.5459   -1.0424    0.0000 O   0  0  0  0  0  0  0  0  0  0  0  0
    3.7766   -2.2466    0.0000 O   0  0  0  0  0  0  0  0  0  0  0  0
    4.4718   -2.6907    0.0000 C   0  0  2  0  0  0  0  0  0  0  0  0
    4.4348   -3.5149    0.0000 O   0  0  0  0  0  0  0  0  0  0  0  0
    5.1300   -3.9590    0.0000 C   0  0  2  0  0  0  0  0  0  0  0  0
    5.0930   -4.7832    0.0000 C   0  0  0  0  0  0  0  0  0  0  0  0
    4.3607   -5.1632    0.0000 O   0  0  0  0  0  0  0  0  0  0  0  0
    5.8623   -3.5790    0.0000 C   0  0  1  0  0  0  0  0  0  0  0  0
    6.5575   -4.0232    0.0000 O   0  0  0  0  0  0  0  0  0  0  0  0
    5.8993   -2.7549    0.0000 C   0  0  2  0  0  0  0  0  0  0  0  0
    6.6316   -2.3748    0.0000 O   0  0  0  0  0  0  0  0  0  0  0  0
    5.2041   -2.3107    0.0000 C   0  0  2  0  0  0  0  0  0  0  0  0
    5.2411   -1.4865    0.0000 O   0  0  0  0  0  0  0  0  0  0  0  0
    5.9734   -1.1065    0.0000 C   0  0  2  0  0  0  0  0  0  0  0  0
    6.6686   -1.5507    0.0000 O   0  0  0  0  0  0  0  0  0  0  0  0
    7.4009   -1.1707    0.0000 C   0  0  2  0  0  0  0  0  0  0  0  0
    8.0961   -1.6148    0.0000 C   0  0  0  0  0  0  0  0  0  0  0  0
    8.0591   -2.4390    0.0000 O   0  0  0  0  0  0  0  0  0  0  0  0
    7.4379   -0.3465    0.0000 C   0  0  1  0  0  0  0  0  0  0  0  0
    8.1702    0.0335    0.0000 O   0  0  0  0  0  0  0  0  0  0  0  0
    6.7427    0.0977    0.0000 C   0  0  2  0  0  0  0  0  0  0  0  0
    6.7797    0.9218    0.0000 O   0  0  0  0  0  0  0  0  0  0  0  0
    6.0104   -0.2824    0.0000 C   0  0  1  0  0  0  0  0  0  0  0  0
    5.3152    0.1618    0.0000 O   0  0  0  0  0  0  0  0  0  0  0  0
    2.5562    1.5595    0.0000 H   0  0  0  0  0  0  0  0  0  0  0  0
    0.7834    1.0195    0.0000 H   0  0  0  0  0  0  0  0  0  0  0  0
    1.5139    1.8013    0.0000 H   0  0  0  0  0  0  0  0  0  0  0  0
    2.3038    1.6169    0.0000 H   0  0  0  0  0  0  0  0  0  0  0  0
    3.3481    1.3840    0.0000 H   0  0  0  0  0  0  0  0  0  0  0  0
    4.1533    1.2044    0.0000 H   0  0  0  0  0  0  0  0  0  0  0  0
    4.4737    0.1835    0.0000 H   0  0  0  0  0  0  0  0  0  0  0  0
    4.7208   -0.6036    0.0000 H   0  0  0  0  0  0  0  0  0  0  0  0
    3.9970   -1.3916    0.0000 H   0  0  0  0  0  0  0  0  0  0  0  0
    1.7407   -1.8783    0.0000 H   0  0  0  0  0  0  0  0  0  0  0  0
    3.4520   -2.5897    0.0000 H   0  0  0  0  0  0  0  0  0  0  0  0
    2.3910   -2.7280    0.0000 H   0  0  0  0  0  0  0  0  0  0  0  0
    3.0370   -0.0107    0.0000 H   0  0  0  0  0  0  0  0  0  0  0  0
    2.0961   -2.4386    0.0000 H   0  0  0  0  0  0  0  0  0  0  0  0
    1.0475   -2.2215    0.0000 H   0  0  0  0  0  0  0  0  0  0  0  0
    0.2580   -2.0699    0.0000 H   0  0  0  0  0  0  0  0  0  0  0  0
   -0.1044   -1.0755    0.0000 H   0  0  0  0  0  0  0  0  0  0  0  0
   -0.3419   -1.9034    0.0000 H   0  0  0  0  0  0  0  0  0  0  0  0
   -1.1812   -1.1794    0.0000 H   0  0  0  0  0  0  0  0  0  0  0  0
   -2.2574    0.4156    0.0000 H   0  0  0  0  0  0  0  0  0  0  0  0
   -1.9573   -1.3465    0.0000 H   0  0  0  0  0  0  0  0  0  0  0  0
    0.9120    0.8400    0.0000 H   0  0  0  0  0  0  0  0  0  0  0  0
    0.1052    1.1345    0.0000 H   0  0  0  0  0  0  0  0  0  0  0  0
   -0.1966    2.2007    0.0000 H   0  0  0  0  0  0  0  0  0  0  0  0
    0.8561    2.0028    0.0000 H   0  0  0  0  0  0  0  0  0  0  0  0
    1.7244    1.8218    0.0000 H   0  0  0  0  0  0  0  0  0  0  0  0
    2.0458    0.7878    0.0000 H   0  0  0  0  0  0  0  0  0  0  0  0
    1.5589   -0.8380    0.0000 H   0  0  0  0  0  0  0  0  0  0  0  0
   -0.1494    1.2222    0.0000 H   0  0  0  0  0  0  0  0  0  0  0  0
    0.6371    2.4152    0.0000 H   0  0  0  0  0  0  0  0  0  0  0  0
    1.3747    2.7847    0.0000 H   0  0  0  0  0  0  0  0  0  0  0  0
    1.4380    3.8529    0.0000 H   0  0  0  0  0  0  0  0  0  0  0  0
    1.3974    4.6317    0.0000 H   0  0  0  0  0  0  0  0  0  0  0  0
    0.0116    3.9374    0.0000 H   0  0  0  0  0  0  0  0  0  0  0  0
   -0.0290    4.7162    0.0000 H   0  0  0  0  0  0  0  0  0  0  0  0
   -1.6195    4.1568    0.0000 H   0  0  0  0  0  0  0  0  0  0  0  0
   -1.4294    3.7774    0.0000 H   0  0  0  0  0  0  0  0  0  0  0  0
   -0.6429    4.9704    0.0000 H   0  0  0  0  0  0  0  0  0  0  0  0
   -0.7354    6.9969    0.0000 H   0  0  0  0  0  0  0  0  0  0  0  0
    0.1580    6.4081    0.0000 H   0  0  0  0  0  0  0  0  0  0  0  0
   -0.1673    4.5065    0.0000 H   0  0  0  0  0  0  0  0  0  0  0  0
   -1.2684    6.4926    0.0000 H   0  0  0  0  0  0  0  0  0  0  0  0
   -1.3090    7.2714    0.0000 H   0  0  0  0  0  0  0  0  0  0  0  0
   -2.8995    6.7120    0.0000 H   0  0  0  0  0  0  0  0  0  0  0  0
   -3.5942    7.0662    0.0000 H   0  0  0  0  0  0  0  0  0  0  0  0
   -3.0749    3.7522    0.0000 H   0  0  0  0  0  0  0  0  0  0  0  0
   -4.5591    4.9846    0.0000 H   0  0  0  0  0  0  0  0  0  0  0  0
   -1.7949    1.1970    0.0000 H   0  0  0  0  0  0  0  0  0  0  0  0
   -3.2213    1.2816    0.0000 H   0  0  0  0  0  0  0  0  0  0  0  0
   -4.6477    1.3661    0.0000 H   0  0  0  0  0  0  0  0  0  0  0  0
   -6.2155    2.6536    0.0000 H   0  0  0  0  0  0  0  0  0  0  0  0
   -6.2788    1.5855    0.0000 H   0  0  0  0  0  0  0  0  0  0  0  0
   -6.2382    0.8066    0.0000 H   0  0  0  0  0  0  0  0  0  0  0  0
   -5.4922    2.7785    0.0000 H   0  0  0  0  0  0  0  0  0  0  0  0
   -5.1672    4.6801    0.0000 H   0  0  0  0  0  0  0  0  0  0  0  0
   -4.8296    3.9113    0.0000 H   0  0  0  0  0  0  0  0  0  0  0  0
   -3.7964    5.1835    0.0000 H   0  0  0  0  0  0  0  0  0  0  0  0
   -2.0776    2.8892    0.0000 H   0  0  0  0  0  0  0  0  0  0  0  0
   -1.7606    3.9498    0.0000 H   0  0  0  0  0  0  0  0  0  0  0  0
    3.5221   -3.1836    0.0000 H   0  0  0  0  0  0  0  0  0  0  0  0
    4.1803   -4.4519    0.0000 H   0  0  0  0  0  0  0  0  0  0  0  0
    5.9947   -5.3593    0.0000 H   0  0  0  0  0  0  0  0  0  0  0  0
    5.0450   -5.8521    0.0000 H   0  0  0  0  0  0  0  0  0  0  0  0
    3.5433   -4.6410    0.0000 H   0  0  0  0  0  0  0  0  0  0  0  0
    5.8142   -4.6479    0.0000 H   0  0  0  0  0  0  0  0  0  0  0  0
    6.5139   -4.9922    0.0000 H   0  0  0  0  0  0  0  0  0  0  0  0
    6.8010   -3.3309    0.0000 H   0  0  0  0  0  0  0  0  0  0  0  0
    7.4491   -2.8970    0.0000 H   0  0  0  0  0  0  0  0  0  0  0  0
    4.3024   -1.7346    0.0000 H   0  0  0  0  0  0  0  0  0  0  0  0
    5.9253   -2.1754    0.0000 H   0  0  0  0  0  0  0  0  0  0  0  0
    7.3529   -2.2396    0.0000 H   0  0  0  0  0  0  0  0  0  0  0  0
    9.0458   -1.1219    0.0000 H   0  0  0  0  0  0  0  0  0  0  0  0
    8.9978   -2.1908    0.0000 H   0  0  0  0  0  0  0  0  0  0  0  0
    7.1981   -2.8858    0.0000 H   0  0  0  0  0  0  0  0  0  0  0  0
    8.3396   -0.9226    0.0000 H   0  0  0  0  0  0  0  0  0  0  0  0
    8.9876   -0.4887    0.0000 H   0  0  0  0  0  0  0  0  0  0  0  0
    7.6924    0.5906    0.0000 H   0  0  0  0  0  0  0  0  0  0  0  0
    7.6407    1.3686    0.0000 H   0  0  0  0  0  0  0  0  0  0  0  0
    5.0607   -0.7753    0.0000 H   0  0  0  0  0  0  0  0  0  0  0  0
    5.3588    1.1308    0.0000 H   0  0  0  0  0  0  0  0  0  0  0  0
  1 79  1  0  0  0  0
  1 80  1  0  0  0  0
  1 81  1  0  0  0  0
  2  1  1  1  0  0  0
  2  3  1  0  0  0  0
  2  8  1  0  0  0  0
  2 19  1  0  0  0  0
  3  4  1  0  0  0  0
  3 82  1  0  0  0  0
  3 83  1  0  0  0  0
  4  5  1  0  0  0  0
  4 84  1  0  0  0  0
  4 85  1  0  0  0  0
  5 86  1  0  0  0  0
  5 87  1  0  0  0  0
  6  5  1  0  0  0  0
  6  7  1  0  0  0  0
  6  8  1  0  0  0  0
  6 54  1  1  0  0  0
  7 88  1  0  0  0  0
  7 89  1  0  0  0  0
  7 90  1  0  0  0  0
  8  9  1  0  0  0  0
  8 91  1  0  0  0  0
  9 10  1  0  0  0  0
  9 92  1  0  0  0  0
  9 93  1  0  0  0  0
 10 94  1  0  0  0  0
 10 95  1  0  0  0  0
 11 10  1  1  0  0  0
 11 12  1  0  0  0  0
 11 16  1  0  0  0  0
 11 19  1  0  0  0  0
 12 13  1  0  0  0  0
 12 96  1  0  0  0  0
 12 97  1  0  0  0  0
 13 14  2  0  0  0  0
 14 98  1  0  0  0  0
 14 99  1  0  0  0  0
 15 13  1  0  0  0  0
 15 16  1  0  0  0  0
 15 17  1  0  0  0  0
 15 20  1  6  0  0  0
 16100  1  0  0  0  0
 16101  1  0  0  0  0
 17 18  1  0  0  0  0
 17102  1  0  0  0  0
 17103  1  0  0  0  0
 18 19  1  0  0  0  0
 18104  1  0  0  0  0
 18105  1  0  0  0  0
 19106  1  0  0  0  0
 21 20  1  0  0  0  0
 21 22  1  0  0  0  0
 21107  1  6  0  0  0
 23 22  1  0  0  0  0
 23 24  1  0  0  0  0
 23108  1  6  0  0  0
 24 25  1  0  0  0  0
 24109  1  0  0  0  0
 24110  1  0  0  0  0
 25111  1  0  0  0  0
 26 23  1  0  0  0  0
 26 27  1  0  0  0  0
 26 28  1  0  0  0  0
 26112  1  1  0  0  0
 27113  1  0  0  0  0
 28 29  1  0  0  0  0
 28 41  1  0  0  0  0
 28114  1  6  0  0  0
 30 29  1  0  0  0  0
 30 31  1  0  0  0  0
 30115  1  6  0  0  0
 32 31  1  0  0  0  0
 32 33  1  0  0  0  0
 32116  1  6  0  0  0
 33 34  1  0  0  0  0
 33117  1  0  0  0  0
 33118  1  0  0  0  0
 34119  1  0  0  0  0
 35 32  1  0  0  0  0
 35 36  1  0  0  0  0
 35 37  1  0  0  0  0
 35120  1  1  0  0  0
 36121  1  0  0  0  0
 37 38  1  0  0  0  0
 37 39  1  0  0  0  0
 37122  1  6  0  0  0
 38123  1  0  0  0  0
 39 30  1  0  0  0  0
 39 40  1  0  0  0  0
 39124  1  1  0  0  0
 40125  1  0  0  0  0
 41 21  1  0  0  0  0
 41 42  1  0  0  0  0
 41126  1  1  0  0  0
 43 42  1  0  0  0  0
 43 44  1  0  0  0  0
 43127  1  1  0  0  0
 45 44  1  0  0  0  0
 45 46  1  0  0  0  0
 45128  1  1  0  0  0
 46 47  1  0  0  0  0
 46129  1  0  0  0  0
 46130  1  0  0  0  0
 47131  1  0  0  0  0
 48 45  1  0  0  0  0
 48 49  1  0  0  0  0
 48 50  1  0  0  0  0
 48132  1  6  0  0  0
 49133  1  0  0  0  0
 50 51  1  0  0  0  0
 50 52  1  0  0  0  0
 50134  1  1  0  0  0
 51135  1  0  0  0  0
 52 43  1  0  0  0  0
 52 53  1  0  0  0  0
 52136  1  6  0  0  0
 53137  1  0  0  0  0
 54 55  2  0  0  0  0
 54 56  1  0  0  0  0
 57 56  1  0  0  0  0
 57 58  1  0  0  0  0
 57138  1  6  0  0  0
 59 58  1  0  0  0  0
 59 60  1  0  0  0  0
 59139  1  6  0  0  0
 60 61  1  0  0  0  0
 60140  1  0  0  0  0
 60141  1  0  0  0  0
 61142  1  0  0  0  0
 62 59  1  0  0  0  0
 62 63  1  0  0  0  0
 62 64  1  0  0  0  0
 62143  1  1  0  0  0
 63144  1  0  0  0  0
 64 65  1  0  0  0  0
 64 66  1  0  0  0  0
 64145  1  6  0  0  0
 65146  1  0  0  0  0
 66 57  1  0  0  0  0
 66 67  1  0  0  0  0
 66147  1  6  0  0  0
 68 67  1  0  0  0  0
 68 69  1  0  0  0  0
 68148  1  6  0  0  0
 70 69  1  0  0  0  0
 70 71  1  0  0  0  0
 70149  1  6  0  0  0
 71 72  1  0  0  0  0
 71150  1  0  0  0  0
 71151  1  0  0  0  0
 72152  1  0  0  0  0
 73 70  1  0  0  0  0
 73 74  1  0  0  0  0
 73 75  1  0  0  0  0
 73153  1  1  0  0  0
 74154  1  0  0  0  0
 75 76  1  0  0  0  0
 75 77  1  0  0  0  0
 75155  1  6  0  0  0
 76156  1  0  0  0  0
 77 68  1  0  0  0  0
 77 78  1  0  0  0  0
 77157  1  1  0  0  0
 78158  1  0  0  0  0
M  END
$$$$
Row32
 OpenBabel08252322322D

137144  0  0  1  0  0  0  0  0999 V2000
    1.8257    0.7777    0.0000 C   0  0  0  0  0  0  0  0  0  0  0  0
    2.0661   -0.0115    0.0000 C   0  0  1  0  0  0  0  0  0  0  0  0
    2.6242    0.5960    0.0000 C   0  0  0  0  0  0  0  0  0  0  0  0
    3.4294    0.4164    0.0000 C   0  0  0  0  0  0  0  0  0  0  0  0
    3.6765   -0.3707    0.0000 C   0  0  0  0  0  0  0  0  0  0  0  0
    3.1184   -0.9782    0.0000 C   0  0  2  0  0  0  0  0  0  0  0  0
    3.8136   -1.4224    0.0000 C   0  0  0  0  0  0  0  0  0  0  0  0
    2.3132   -0.7987    0.0000 C   0  0  3  0  0  0  0  0  0  0  0  0
    1.7596   -1.4229    0.0000 C   0  0  0  0  0  0  0  0  0  0  0  0
    0.9506   -1.2543    0.0000 C   0  0  0  0  0  0  0  0  0  0  0  0
    0.6469   -0.4671    0.0000 C   0  0  1  0  0  0  0  0  0  0  0  0
   -0.1637   -0.8483    0.0000 C   0  0  0  0  0  0  0  0  0  0  0  0
   -0.7854   -0.2403    0.0000 C   0  0  0  0  0  0  0  0  0  0  0  0
   -1.5987   -0.3788    0.0000 C   0  0  0  0  0  0  0  0  0  0  0  0
   -0.4028    0.5335    0.0000 C   0  0  2  0  0  0  0  0  0  0  0  0
    0.1726    0.0666    0.0000 C   0  0  0  0  0  0  0  0  0  0  0  0
    0.1586    1.1914    0.0000 C   0  0  0  0  0  0  0  0  0  0  0  0
    1.0038    1.0309    0.0000 C   0  0  0  0  0  0  0  0  0  0  0  0
    1.2474    0.1857    0.0000 C   0  0  3  0  0  0  0  0  0  0  0  0
   -1.0916    0.9875    0.0000 O   0  0  0  0  0  0  0  0  0  0  0  0
   -1.0428    1.8111    0.0000 C   0  0  2  0  0  0  0  0  0  0  0  0
   -1.7316    2.2651    0.0000 O   0  0  0  0  0  0  0  0  0  0  0  0
   -1.6828    3.0887    0.0000 C   0  0  2  0  0  0  0  0  0  0  0  0
   -2.3716    3.5427    0.0000 C   0  0  0  0  0  0  0  0  0  0  0  0
   -2.3228    4.3663    0.0000 O   0  0  0  0  0  0  0  0  0  0  0  0
   -0.9451    3.4582    0.0000 C   0  0  1  0  0  0  0  0  0  0  0  0
   -0.8963    4.2817    0.0000 O   0  0  0  0  0  0  0  0  0  0  0  0
   -0.2563    3.0041    0.0000 C   0  0  2  0  0  0  0  0  0  0  0  0
    0.4813    3.3736    0.0000 O   0  0  0  0  0  0  0  0  0  0  0  0
    0.5301    4.1972    0.0000 C   0  0  2  0  0  0  0  0  0  0  0  0
   -0.1587    4.6512    0.0000 O   0  0  0  0  0  0  0  0  0  0  0  0
   -0.1099    5.4748    0.0000 C   0  0  2  0  0  0  0  0  0  0  0  0
   -0.7987    5.9288    0.0000 C   0  0  0  0  0  0  0  0  0  0  0  0
   -0.7499    6.7524    0.0000 O   0  0  0  0  0  0  0  0  0  0  0  0
    0.6277    5.8443    0.0000 C   0  0  1  0  0  0  0  0  0  0  0  0
    0.6765    6.6679    0.0000 O   0  0  0  0  0  0  0  0  0  0  0  0
    1.3166    5.3902    0.0000 C   0  0  2  0  0  0  0  0  0  0  0  0
    2.0542    5.7598    0.0000 O   0  0  0  0  0  0  0  0  0  0  0  0
    1.2677    4.5667    0.0000 C   0  0  2  0  0  0  0  0  0  0  0  0
    1.9566    4.1126    0.0000 O   0  0  0  0  0  0  0  0  0  0  0  0
    2.6942    4.4821    0.0000 C   0  0  2  0  0  0  0  0  0  0  0  0
    2.7430    5.3057    0.0000 O   0  0  0  0  0  0  0  0  0  0  0  0
    3.4806    5.6752    0.0000 C   0  0  2  0  0  0  0  0  0  0  0  0
    3.5294    6.4988    0.0000 C   0  0  0  0  0  0  0  0  0  0  0  0
    4.2670    6.8683    0.0000 O   0  0  0  0  0  0  0  0  0  0  0  0
    4.1694    5.2212    0.0000 C   0  0  1  0  0  0  0  0  0  0  0  0
    4.9071    5.5907    0.0000 O   0  0  0  0  0  0  0  0  0  0  0  0
    4.1206    4.3976    0.0000 C   0  0  2  0  0  0  0  0  0  0  0  0
    4.8094    3.9436    0.0000 O   0  0  0  0  0  0  0  0  0  0  0  0
    3.3830    4.0281    0.0000 C   0  0  1  0  0  0  0  0  0  0  0  0
    3.3342    3.2045    0.0000 O   0  0  0  0  0  0  0  0  0  0  0  0
   -0.3051    2.1806    0.0000 C   0  0  1  0  0  0  0  0  0  0  0  0
    0.3837    1.7265    0.0000 O   0  0  0  0  0  0  0  0  0  0  0  0
    2.8017   -1.7400    0.0000 C   0  0  0  0  0  0  0  0  0  0  0  0
    1.9836   -1.8467    0.0000 O   0  0  0  0  0  0  0  0  0  0  0  0
    3.3031   -2.3952    0.0000 O   0  0  0  0  0  0  0  0  0  0  0  0
    2.9864   -3.1570    0.0000 C   0  0  2  0  0  0  0  0  0  0  0  0
    3.4878   -3.8122    0.0000 O   0  0  0  0  0  0  0  0  0  0  0  0
    3.1711   -4.5740    0.0000 C   0  0  2  0  0  0  0  0  0  0  0  0
    3.6725   -5.2291    0.0000 C   0  0  0  0  0  0  0  0  0  0  0  0
    3.3559   -5.9909    0.0000 O   0  0  0  0  0  0  0  0  0  0  0  0
    2.3531   -4.6806    0.0000 C   0  0  2  0  0  0  0  0  0  0  0  0
    2.0364   -5.4424    0.0000 O   0  0  0  0  0  0  0  0  0  0  0  0
    1.8517   -4.0254    0.0000 C   0  0  1  0  0  0  0  0  0  0  0  0
    1.0336   -4.1321    0.0000 O   0  0  0  0  0  0  0  0  0  0  0  0
    2.1683   -3.2636    0.0000 C   0  0  1  0  0  0  0  0  0  0  0  0
    1.6669   -2.6085    0.0000 O   0  0  0  0  0  0  0  0  0  0  0  0
    2.5562    1.5595    0.0000 H   0  0  0  0  0  0  0  0  0  0  0  0
    0.7834    1.0195    0.0000 H   0  0  0  0  0  0  0  0  0  0  0  0
    1.5139    1.8013    0.0000 H   0  0  0  0  0  0  0  0  0  0  0  0
    2.3038    1.6169    0.0000 H   0  0  0  0  0  0  0  0  0  0  0  0
    3.3481    1.3840    0.0000 H   0  0  0  0  0  0  0  0  0  0  0  0
    4.1533    1.2044    0.0000 H   0  0  0  0  0  0  0  0  0  0  0  0
    4.4737    0.1835    0.0000 H   0  0  0  0  0  0  0  0  0  0  0  0
    4.7208   -0.6036    0.0000 H   0  0  0  0  0  0  0  0  0  0  0  0
    3.9970   -1.3916    0.0000 H   0  0  0  0  0  0  0  0  0  0  0  0
    3.7655   -2.4913    0.0000 H   0  0  0  0  0  0  0  0  0  0  0  0
    4.7634   -0.9296    0.0000 H   0  0  0  0  0  0  0  0  0  0  0  0
    4.7153   -1.9985    0.0000 H   0  0  0  0  0  0  0  0  0  0  0  0
    3.0370   -0.0107    0.0000 H   0  0  0  0  0  0  0  0  0  0  0  0
    2.0961   -2.4386    0.0000 H   0  0  0  0  0  0  0  0  0  0  0  0
    1.0475   -2.2215    0.0000 H   0  0  0  0  0  0  0  0  0  0  0  0
    0.2580   -2.0699    0.0000 H   0  0  0  0  0  0  0  0  0  0  0  0
   -0.1044   -1.0755    0.0000 H   0  0  0  0  0  0  0  0  0  0  0  0
   -0.3419   -1.9034    0.0000 H   0  0  0  0  0  0  0  0  0  0  0  0
   -1.1812   -1.1794    0.0000 H   0  0  0  0  0  0  0  0  0  0  0  0
   -2.2574    0.4156    0.0000 H   0  0  0  0  0  0  0  0  0  0  0  0
   -1.9573   -1.3465    0.0000 H   0  0  0  0  0  0  0  0  0  0  0  0
    0.9120    0.8400    0.0000 H   0  0  0  0  0  0  0  0  0  0  0  0
    0.1052    1.1345    0.0000 H   0  0  0  0  0  0  0  0  0  0  0  0
   -0.1966    2.2007    0.0000 H   0  0  0  0  0  0  0  0  0  0  0  0
    0.8561    2.0028    0.0000 H   0  0  0  0  0  0  0  0  0  0  0  0
    1.7244    1.8218    0.0000 H   0  0  0  0  0  0  0  0  0  0  0  0
    2.0458    0.7878    0.0000 H   0  0  0  0  0  0  0  0  0  0  0  0
    1.5589   -0.8380    0.0000 H   0  0  0  0  0  0  0  0  0  0  0  0
   -1.9995    1.3318    0.0000 H   0  0  0  0  0  0  0  0  0  0  0  0
   -2.6395    2.6094    0.0000 H   0  0  0  0  0  0  0  0  0  0  0  0
   -3.3283    3.0634    0.0000 H   0  0  0  0  0  0  0  0  0  0  0  0
   -3.2650    4.1316    0.0000 H   0  0  0  0  0  0  0  0  0  0  0  0
   -1.4555    4.8008    0.0000 H   0  0  0  0  0  0  0  0  0  0  0  0
   -1.8385    4.0471    0.0000 H   0  0  0  0  0  0  0  0  0  0  0  0
   -0.0290    4.7162    0.0000 H   0  0  0  0  0  0  0  0  0  0  0  0
   -0.1930    4.0722    0.0000 H   0  0  0  0  0  0  0  0  0  0  0  0
   -0.4266    3.7179    0.0000 H   0  0  0  0  0  0  0  0  0  0  0  0
   -1.0666    4.9955    0.0000 H   0  0  0  0  0  0  0  0  0  0  0  0
   -1.7554    5.4495    0.0000 H   0  0  0  0  0  0  0  0  0  0  0  0
   -1.6921    6.5177    0.0000 H   0  0  0  0  0  0  0  0  0  0  0  0
    0.1174    7.1869    0.0000 H   0  0  0  0  0  0  0  0  0  0  0  0
   -0.2657    6.4332    0.0000 H   0  0  0  0  0  0  0  0  0  0  0  0
    1.5438    7.1024    0.0000 H   0  0  0  0  0  0  0  0  0  0  0  0
    1.3798    6.4583    0.0000 H   0  0  0  0  0  0  0  0  0  0  0  0
    2.8641    5.2260    0.0000 H   0  0  0  0  0  0  0  0  0  0  0  0
    1.2044    3.4986    0.0000 H   0  0  0  0  0  0  0  0  0  0  0  0
    1.8008    5.0710    0.0000 H   0  0  0  0  0  0  0  0  0  0  0  0
    2.5872    6.2641    0.0000 H   0  0  0  0  0  0  0  0  0  0  0  0
    2.6360    7.0877    0.0000 H   0  0  0  0  0  0  0  0  0  0  0  0
    3.5927    7.5669    0.0000 H   0  0  0  0  0  0  0  0  0  0  0  0
    5.0769    6.3345    0.0000 H   0  0  0  0  0  0  0  0  0  0  0  0
    4.2327    6.2893    0.0000 H   0  0  0  0  0  0  0  0  0  0  0  0
    5.7170    5.0568    0.0000 H   0  0  0  0  0  0  0  0  0  0  0  0
    5.0773    4.8769    0.0000 H   0  0  0  0  0  0  0  0  0  0  0  0
    4.7520    2.9753    0.0000 H   0  0  0  0  0  0  0  0  0  0  0  0
    2.4263    3.5488    0.0000 H   0  0  0  0  0  0  0  0  0  0  0  0
    2.4669    2.7700    0.0000 H   0  0  0  0  0  0  0  0  0  0  0  0
   -0.3685    1.1125    0.0000 H   0  0  0  0  0  0  0  0  0  0  0  0
    0.3263    0.7582    0.0000 H   0  0  0  0  0  0  0  0  0  0  0  0
    4.0474   -3.0187    0.0000 H   0  0  0  0  0  0  0  0  0  0  0  0
    4.2321   -4.4357    0.0000 H   0  0  0  0  0  0  0  0  0  0  0  0
    4.7335   -5.0907    0.0000 H   0  0  0  0  0  0  0  0  0  0  0  0
    4.3229   -6.0788    0.0000 H   0  0  0  0  0  0  0  0  0  0  0  0
    2.3940   -6.1164    0.0000 H   0  0  0  0  0  0  0  0  0  0  0  0
    3.0034   -5.5303    0.0000 H   0  0  0  0  0  0  0  0  0  0  0  0
    1.0745   -5.5678    0.0000 H   0  0  0  0  0  0  0  0  0  0  0  0
    1.4410   -5.0134    0.0000 H   0  0  0  0  0  0  0  0  0  0  0  0
    0.4440   -3.3618    0.0000 H   0  0  0  0  0  0  0  0  0  0  0  0
    2.5790   -2.2756    0.0000 H   0  0  0  0  0  0  0  0  0  0  0  0
    2.0392   -1.7128    0.0000 H   0  0  0  0  0  0  0  0  0  0  0  0
  1 68  1  0  0  0  0
  1 69  1  0  0  0  0
  1 70  1  0  0  0  0
  2  1  1  1  0  0  0
  2  3  1  0  0  0  0
  2  8  1  0  0  0  0
  2 19  1  0  0  0  0
  3  4  1  0  0  0  0
  3 71  1  0  0  0  0
  3 72  1  0  0  0  0
  4  5  1  0  0  0  0
  4 73  1  0  0  0  0
  4 74  1  0  0  0  0
  5 75  1  0  0  0  0
  5 76  1  0  0  0  0
  6  5  1  0  0  0  0
  6  7  1  0  0  0  0
  6  8  1  0  0  0  0
  6 54  1  1  0  0  0
  7 77  1  0  0  0  0
  7 78  1  0  0  0  0
  7 79  1  0  0  0  0
  8  9  1  0  0  0  0
  8 80  1  0  0  0  0
  9 10  1  0  0  0  0
  9 81  1  0  0  0  0
  9 82  1  0  0  0  0
 10 83  1  0  0  0  0
 10 84  1  0  0  0  0
 11 10  1  1  0  0  0
 11 12  1  0  0  0  0
 11 16  1  0  0  0  0
 11 19  1  0  0  0  0
 12 13  1  0  0  0  0
 12 85  1  0  0  0  0
 12 86  1  0  0  0  0
 13 14  2  0  0  0  0
 14 87  1  0  0  0  0
 14 88  1  0  0  0  0
 15 13  1  0  0  0  0
 15 16  1  0  0  0  0
 15 17  1  0  0  0  0
 15 20  1  6  0  0  0
 16 89  1  0  0  0  0
 16 90  1  0  0  0  0
 17 18  1  0  0  0  0
 17 91  1  0  0  0  0
 17 92  1  0  0  0  0
 18 19  1  0  0  0  0
 18 93  1  0  0  0  0
 18 94  1  0  0  0  0
 19 95  1  0  0  0  0
 21 20  1  0  0  0  0
 21 22  1  0  0  0  0
 21 96  1  1  0  0  0
 23 22  1  0  0  0  0
 23 24  1  0  0  0  0
 23 97  1  1  0  0  0
 24 25  1  0  0  0  0
 24 98  1  0  0  0  0
 24 99  1  0  0  0  0
 25100  1  0  0  0  0
 26 23  1  0  0  0  0
 26 27  1  0  0  0  0
 26 28  1  0  0  0  0
 26101  1  6  0  0  0
 27102  1  0  0  0  0
 28 29  1  0  0  0  0
 28 52  1  0  0  0  0
 28103  1  1  0  0  0
 30 29  1  0  0  0  0
 30 31  1  0  0  0  0
 30104  1  1  0  0  0
 32 31  1  0  0  0  0
 32 33  1  0  0  0  0
 32105  1  1  0  0  0
 33 34  1  0  0  0  0
 33106  1  0  0  0  0
 33107  1  0  0  0  0
 34108  1  0  0  0  0
 35 32  1  0  0  0  0
 35 36  1  0  0  0  0
 35 37  1  0  0  0  0
 35109  1  6  0  0  0
 36110  1  0  0  0  0
 37 38  1  0  0  0  0
 37 39  1  0  0  0  0
 37111  1  1  0  0  0
 38112  1  0  0  0  0
 39 30  1  0  0  0  0
 39 40  1  0  0  0  0
 39113  1  1  0  0  0
 41 40  1  0  0  0  0
 41 42  1  0  0  0  0
 41114  1  1  0  0  0
 43 42  1  0  0  0  0
 43 44  1  0  0  0  0
 43115  1  1  0  0  0
 44 45  1  0  0  0  0
 44116  1  0  0  0  0
 44117  1  0  0  0  0
 45118  1  0  0  0  0
 46 43  1  0  0  0  0
 46 47  1  0  0  0  0
 46 48  1  0  0  0  0
 46119  1  6  0  0  0
 47120  1  0  0  0  0
 48 49  1  0  0  0  0
 48 50  1  0  0  0  0
 48121  1  1  0  0  0
 49122  1  0  0  0  0
 50 41  1  0  0  0  0
 50 51  1  0  0  0  0
 50123  1  6  0  0  0
 51124  1  0  0  0  0
 52 21  1  0  0  0  0
 52 53  1  0  0  0  0
 52125  1  6  0  0  0
 53126  1  0  0  0  0
 54 55  2  0  0  0  0
 54 56  1  0  0  0  0
 57 56  1  0  0  0  0
 57 58  1  0  0  0  0
 57127  1  1  0  0  0
 59 58  1  0  0  0  0
 59 60  1  0  0  0  0
 59128  1  1  0  0  0
 60 61  1  0  0  0  0
 60129  1  0  0  0  0
 60130  1  0  0  0  0
 61131  1  0  0  0  0
 62 59  1  0  0  0  0
 62 63  1  0  0  0  0
 62 64  1  0  0  0  0
 62132  1  1  0  0  0
 63133  1  0  0  0  0
 64 65  1  0  0  0  0
 64 66  1  0  0  0  0
 64134  1  6  0  0  0
 65135  1  0  0  0  0
 66 57  1  0  0  0  0
 66 67  1  0  0  0  0
 66136  1  6  0  0  0
 67137  1  0  0  0  0
M  END
$$$$
Row33
 OpenBabel08252322323D

116122  0  0  1  0  0  0  0  0999 V2000
    3.3257   -1.2233   -2.3995 C   0  0  0  0  0  0  0  0  0  0  0  0
    3.7870   -0.5030   -3.7278 C   0  0  1  0  0  0  0  0  0  0  0  0
    5.3620   -0.6133   -3.7932 C   0  0  0  0  0  0  0  0  0  0  0  0
    5.9214   -2.0370   -4.0411 C   0  0  0  0  0  0  0  0  0  0  0  0
    5.3400   -2.6437   -5.3375 C   0  0  0  0  0  0  0  0  0  0  0  0
    3.7653   -2.6437   -5.4396 C   0  0  2  0  0  0  0  0  0  0  0  0
    3.4695   -2.9245   -6.9619 C   0  0  0  0  0  0  0  0  0  0  0  0
    3.1830   -1.2147   -5.0177 C   0  0  1  0  0  0  0  0  0  0  0  0
    1.6095   -1.1133   -5.0626 C   0  0  0  0  0  0  0  0  0  0  0  0
    0.9987    0.2081   -4.5151 C   0  0  0  0  0  0  0  0  0  0  0  0
    1.9959    1.4000   -4.5099 C   0  0  1  0  0  0  0  0  0  0  0  0
    2.2814    1.9701   -5.9449 C   0  0  0  0  0  0  0  0  0  0  0  0
    2.4572    3.3994   -5.7428 C   0  0  0  0  0  0  0  0  0  0  0  0
    2.6937    4.2486   -6.7567 C   0  0  0  0  0  0  0  0  0  0  0  0
    2.3331    3.7803   -4.3362 C   0  0  1  0  0  0  0  0  0  0  0  0
    1.3422    2.6713   -3.8917 C   0  0  0  0  0  0  0  0  0  0  0  0
    3.7182    3.5975   -3.6169 C   0  0  0  0  0  0  0  0  0  0  0  0
    4.3525    2.1821   -3.7867 C   0  0  0  0  0  0  0  0  0  0  0  0
    3.2889    1.0334   -3.6485 C   0  0  2  0  0  0  0  0  0  0  0  0
    1.8211    5.1379   -4.2057 O   0  0  0  0  0  0  0  0  0  0  0  0
    1.1928    5.5733   -2.9719 C   0  0  1  0  0  0  0  0  0  0  0  0
    2.0964    5.6913   -1.8499 O   0  0  0  0  0  0  0  0  0  0  0  0
    3.1141    6.7095   -1.9774 C   0  0  2  0  0  0  0  0  0  0  0  0
    4.0076    6.6746   -0.7141 C   0  0  0  0  0  0  0  0  0  0  0  0
    4.5621    5.3771   -0.5229 O   0  0  0  0  0  0  0  0  0  0  0  0
    2.4624    8.1065   -2.1936 C   0  0  1  0  0  0  0  0  0  0  0  0
    3.4626    9.0932   -2.4362 O   0  0  0  0  0  0  0  0  0  0  0  0
    1.4802    8.0573   -3.3915 C   0  0  2  0  0  0  0  0  0  0  0  0
    0.8273    9.3148   -3.5534 O   0  0  0  0  0  0  0  0  0  0  0  0
    0.4387    6.9150   -3.2322 C   0  0  2  0  0  0  0  0  0  0  0  0
   -0.5208    7.2708   -2.1952 O   0  0  0  0  0  0  0  0  0  0  0  0
   -1.7251    6.4698   -2.1063 C   0  0  2  0  0  0  0  0  0  0  0  0
   -2.3789    6.4379   -3.4500 O   0  0  0  0  0  0  0  0  0  0  0  0
   -3.6110    5.5995   -3.3858 C   0  0  2  0  0  0  0  0  0  0  0  0
   -4.2471    5.7235   -4.7935 C   0  0  0  0  0  0  0  0  0  0  0  0
   -3.3150    5.3236   -5.7943 O   0  0  0  0  0  0  0  0  0  0  0  0
   -4.6462    6.0172   -2.2576 C   0  0  1  0  0  0  0  0  0  0  0  0
   -5.6968    5.0555   -2.1568 O   0  0  0  0  0  0  0  0  0  0  0  0
   -3.9364    6.1750   -0.8802 C   0  0  2  0  0  0  0  0  0  0  0  0
   -4.8421    6.7247    0.0754 O   0  0  0  0  0  0  0  0  0  0  0  0
   -2.6509    7.0484   -0.9656 C   0  0  1  0  0  0  0  0  0  0  0  0
   -1.9724    7.0518    0.2886 O   0  0  0  0  0  0  0  0  0  0  0  0
    3.1516   -3.7622   -4.6394 C   0  0  0  0  0  0  0  0  0  0  0  0
    2.0206   -4.2203   -4.9365 O   0  0  0  0  0  0  0  0  0  0  0  0
    3.7948   -4.3130   -3.5664 O   0  0  0  0  0  0  0  0  0  0  0  0
    3.2028   -5.1090   -2.5289 C   0  0  2  0  0  0  0  0  0  0  0  0
    2.1875   -4.2865   -1.9095 O   0  0  0  0  0  0  0  0  0  0  0  0
    1.5128   -4.8575   -0.7702 C   0  0  2  0  0  0  0  0  0  0  0  0
    0.4775   -3.8211   -0.2672 C   0  0  0  0  0  0  0  0  0  0  0  0
   -0.4628   -3.5018   -1.2858 O   0  0  0  0  0  0  0  0  0  0  0  0
    2.5420   -5.2278    0.3365 C   0  0  1  0  0  0  0  0  0  0  0  0
    1.8936   -5.8897    1.4214 O   0  0  0  0  0  0  0  0  0  0  0  0
    3.6586   -6.1386   -0.2421 C   0  0  2  0  0  0  0  0  0  0  0  0
    4.6509   -6.3722    0.7556 O   0  0  0  0  0  0  0  0  0  0  0  0
    4.3013   -5.5047   -1.5049 C   0  0  1  0  0  0  0  0  0  0  0  0
    5.2346   -6.4034   -2.1018 O   0  0  0  0  0  0  0  0  0  0  0  0
    3.6408   -2.2456   -2.4202 H   0  0  0  0  0  0  0  0  0  0  0  0
    2.2594   -1.1803   -2.3223 H   0  0  0  0  0  0  0  0  0  0  0  0
    3.7645   -0.7318   -1.5564 H   0  0  0  0  0  0  0  0  0  0  0  0
    5.7560   -0.2617   -2.8626 H   0  0  0  0  0  0  0  0  0  0  0  0
    5.6626   -0.0285   -4.6373 H   0  0  0  0  0  0  0  0  0  0  0  0
    5.6608   -2.6640   -3.2141 H   0  0  0  0  0  0  0  0  0  0  0  0
    6.9846   -1.9720   -4.1427 H   0  0  0  0  0  0  0  0  0  0  0  0
    5.6750   -3.6576   -5.4063 H   0  0  0  0  0  0  0  0  0  0  0  0
    5.6865   -2.0204   -6.1352 H   0  0  0  0  0  0  0  0  0  0  0  0
    3.8947   -2.1440   -7.5577 H   0  0  0  0  0  0  0  0  0  0  0  0
    2.4117   -2.9576   -7.1195 H   0  0  0  0  0  0  0  0  0  0  0  0
    3.9013   -3.8626   -7.2420 H   0  0  0  0  0  0  0  0  0  0  0  0
    3.5761   -0.6240   -5.8186 H   0  0  0  0  0  0  0  0  0  0  0  0
    1.2121   -1.9220   -4.4856 H   0  0  0  0  0  0  0  0  0  0  0  0
    1.3464   -1.1465   -6.0992 H   0  0  0  0  0  0  0  0  0  0  0  0
    0.6697    0.0381   -3.5112 H   0  0  0  0  0  0  0  0  0  0  0  0
    0.1940    0.4755   -5.1677 H   0  0  0  0  0  0  0  0  0  0  0  0
    1.4558    1.7796   -6.5983 H   0  0  0  0  0  0  0  0  0  0  0  0
    3.1371    1.5160   -6.3994 H   0  0  0  0  0  0  0  0  0  0  0  0
    2.7664    3.8918   -7.7223 H   0  0  0  0  0  0  0  0  0  0  0  0
    2.8026    5.2577   -6.5699 H   0  0  0  0  0  0  0  0  0  0  0  0
    1.2864    2.6023   -2.8254 H   0  0  0  0  0  0  0  0  0  0  0  0
    0.3331    2.8381   -4.2059 H   0  0  0  0  0  0  0  0  0  0  0  0
    3.5785    3.7781   -2.5715 H   0  0  0  0  0  0  0  0  0  0  0  0
    4.3929    4.2907   -4.0743 H   0  0  0  0  0  0  0  0  0  0  0  0
    5.1030    2.0487   -3.0358 H   0  0  0  0  0  0  0  0  0  0  0  0
    4.7704    2.1257   -4.7701 H   0  0  0  0  0  0  0  0  0  0  0  0
    3.0213    1.0174   -2.6126 H   0  0  0  0  0  0  0  0  0  0  0  0
    0.5048    4.8060   -2.6840 H   0  0  0  0  0  0  0  0  0  0  0  0
    3.7251    6.5187   -2.8348 H   0  0  0  0  0  0  0  0  0  0  0  0
    3.4176    6.9333    0.1402 H   0  0  0  0  0  0  0  0  0  0  0  0
    4.8073    7.3743   -0.8401 H   0  0  0  0  0  0  0  0  0  0  0  0
    3.8459    4.7332   -0.4074 H   0  0  0  0  0  0  0  0  0  0  0  0
    1.9254    8.3683   -1.3059 H   0  0  0  0  0  0  0  0  0  0  0  0
    3.9549    8.8638   -3.2399 H   0  0  0  0  0  0  0  0  0  0  0  0
    2.0516    7.8510   -4.2723 H   0  0  0  0  0  0  0  0  0  0  0  0
    0.3055    9.5127   -2.7600 H   0  0  0  0  0  0  0  0  0  0  0  0
   -0.1317    6.7769   -4.1269 H   0  0  0  0  0  0  0  0  0  0  0  0
   -1.5078    5.4571   -1.8380 H   0  0  0  0  0  0  0  0  0  0  0  0
   -3.3488    4.5969   -3.1194 H   0  0  0  0  0  0  0  0  0  0  0  0
   -4.5328    6.7406   -4.9634 H   0  0  0  0  0  0  0  0  0  0  0  0
   -5.1064    5.0880   -4.8444 H   0  0  0  0  0  0  0  0  0  0  0  0
   -2.5326    5.8955   -5.7545 H   0  0  0  0  0  0  0  0  0  0  0  0
   -5.0669    6.9615   -2.5335 H   0  0  0  0  0  0  0  0  0  0  0  0
   -5.3248    4.1953   -1.9068 H   0  0  0  0  0  0  0  0  0  0  0  0
   -3.6305    5.1981   -0.5687 H   0  0  0  0  0  0  0  0  0  0  0  0
   -5.1165    7.6099   -0.2111 H   0  0  0  0  0  0  0  0  0  0  0  0
   -2.9093    8.0605   -1.1975 H   0  0  0  0  0  0  0  0  0  0  0  0
   -1.7252    6.1441    0.5250 H   0  0  0  0  0  0  0  0  0  0  0  0
    2.7692   -6.0108   -2.9078 H   0  0  0  0  0  0  0  0  0  0  0  0
    1.0087   -5.7622   -1.0391 H   0  0  0  0  0  0  0  0  0  0  0  0
    0.9903   -2.9293    0.0272 H   0  0  0  0  0  0  0  0  0  0  0  0
   -0.0501   -4.2426    0.5628 H   0  0  0  0  0  0  0  0  0  0  0  0
    0.0018   -3.1181   -2.0460 H   0  0  0  0  0  0  0  0  0  0  0  0
    2.9841   -4.3225    0.6969 H   0  0  0  0  0  0  0  0  0  0  0  0
    1.4896   -6.7122    1.1033 H   0  0  0  0  0  0  0  0  0  0  0  0
    3.2205   -7.0708   -0.5321 H   0  0  0  0  0  0  0  0  0  0  0  0
    5.0490   -5.5280    1.0196 H   0  0  0  0  0  0  0  0  0  0  0  0
    4.8276   -4.6219   -1.2072 H   0  0  0  0  0  0  0  0  0  0  0  0
    4.7741   -7.2111   -2.3784 H   0  0  0  0  0  0  0  0  0  0  0  0
  1 57  1  0  0  0  0
  1 58  1  0  0  0  0
  1 59  1  0  0  0  0
  2  1  1  1  0  0  0
  2  3  1  0  0  0  0
  2  8  1  0  0  0  0
  2 19  1  0  0  0  0
  3  4  1  0  0  0  0
  3 60  1  0  0  0  0
  3 61  1  0  0  0  0
  4  5  1  0  0  0  0
  4 62  1  0  0  0  0
  4 63  1  0  0  0  0
  5  6  1  0  0  0  0
  5 64  1  0  0  0  0
  5 65  1  0  0  0  0
  6  7  1  0  0  0  0
  6  8  1  0  0  0  0
  6 43  1  1  0  0  0
  7 66  1  0  0  0  0
  7 67  1  0  0  0  0
  7 68  1  0  0  0  0
  8  9  1  0  0  0  0
  8 69  1  6  0  0  0
  9 10  1  0  0  0  0
  9 70  1  0  0  0  0
  9 71  1  0  0  0  0
 10 72  1  0  0  0  0
 10 73  1  0  0  0  0
 11 10  1  6  0  0  0
 11 12  1  0  0  0  0
 11 16  1  0  0  0  0
 11 19  1  0  0  0  0
 12 13  1  0  0  0  0
 12 74  1  0  0  0  0
 12 75  1  0  0  0  0
 13 14  2  0  0  0  0
 13 15  1  0  0  0  0
 14 76  1  0  0  0  0
 14 77  1  0  0  0  0
 15 16  1  0  0  0  0
 15 17  1  0  0  0  0
 15 20  1  1  0  0  0
 16 78  1  0  0  0  0
 16 79  1  0  0  0  0
 17 18  1  0  0  0  0
 17 80  1  0  0  0  0
 17 81  1  0  0  0  0
 18 19  1  0  0  0  0
 18 82  1  0  0  0  0
 18 83  1  0  0  0  0
 19 84  1  1  0  0  0
 20 21  1  0  0  0  0
 21 22  1  0  0  0  0
 21 30  1  0  0  0  0
 21 85  1  1  0  0  0
 22 23  1  0  0  0  0
 23 24  1  0  0  0  0
 23 26  1  0  0  0  0
 23 86  1  6  0  0  0
 24 25  1  0  0  0  0
 24 87  1  0  0  0  0
 24 88  1  0  0  0  0
 25 89  1  0  0  0  0
 26 27  1  0  0  0  0
 26 28  1  0  0  0  0
 26 90  1  1  0  0  0
 27 91  1  0  0  0  0
 28 29  1  0  0  0  0
 28 30  1  0  0  0  0
 28 92  1  6  0  0  0
 29 93  1  0  0  0  0
 30 31  1  0  0  0  0
 30 94  1  6  0  0  0
 31 32  1  0  0  0  0
 32 33  1  0  0  0  0
 32 41  1  0  0  0  0
 32 95  1  1  0  0  0
 33 34  1  0  0  0  0
 34 35  1  0  0  0  0
 34 37  1  0  0  0  0
 34 96  1  1  0  0  0
 35 36  1  0  0  0  0
 35 97  1  0  0  0  0
 35 98  1  0  0  0  0
 36 99  1  0  0  0  0
 37 38  1  0  0  0  0
 37 39  1  0  0  0  0
 37100  1  6  0  0  0
 38101  1  0  0  0  0
 39 40  1  0  0  0  0
 39 41  1  0  0  0  0
 39102  1  1  0  0  0
 40103  1  0  0  0  0
 41 42  1  0  0  0  0
 41104  1  6  0  0  0
 42105  1  0  0  0  0
 43 44  2  0  0  0  0
 43 45  1  0  0  0  0
 45 46  1  0  0  0  0
 46 47  1  0  0  0  0
 46 55  1  0  0  0  0
 46106  1  6  0  0  0
 47 48  1  0  0  0  0
 48 49  1  0  0  0  0
 48 51  1  0  0  0  0
 48107  1  6  0  0  0
 49 50  1  0  0  0  0
 49108  1  0  0  0  0
 49109  1  0  0  0  0
 50110  1  0  0  0  0
 51 52  1  0  0  0  0
 51 53  1  0  0  0  0
 51111  1  1  0  0  0
 52112  1  0  0  0  0
 53 54  1  0  0  0  0
 53 55  1  0  0  0  0
 53113  1  6  0  0  0
 54114  1  0  0  0  0
 55 56  1  0  0  0  0
 55115  1  1  0  0  0
 56116  1  0  0  0  0
M  END
$$$$
Row34
 OpenBabel08252322323D

 40 42  0  0  1  0  0  0  0  0999 V2000
    6.7211   -2.1185    0.1147 C   0  0  0  0  0  0  0  0  0  0  0  0
    5.4060   -2.5269   -0.6411 C   0  0  1  0  0  0  0  0  0  0  0  0
    5.7921   -3.3585   -1.9315 C   0  0  0  0  0  0  0  0  0  0  0  0
    4.6062   -4.1624   -2.5620 C   0  0  0  0  0  0  0  0  0  0  0  0
    3.7405   -4.9422   -1.5213 C   0  0  1  0  0  0  0  0  0  0  0  0
    4.4543   -6.1204   -1.0979 O   0  0  0  0  0  0  0  0  0  0  0  0
    3.6884   -6.8697   -0.3294 O   0  0  0  0  0  0  0  0  0  0  0  0
    3.4299   -4.0192   -0.4140 C   0  0  0  0  0  0  0  0  0  0  0  0
    4.6064   -3.5071    0.2946 C   0  0  0  0  0  0  0  0  0  0  0  0
    2.1666   -3.5940   -0.1894 C   0  0  0  0  0  0  0  0  0  0  0  0
    1.7647   -2.4558    0.6369 C   0  0  0  0  0  0  0  0  0  0  0  0
    2.1057   -1.1028   -0.0849 C   0  0  2  0  0  0  0  0  0  0  0  0
    3.6041   -0.6583    0.0616 C   0  0  2  0  0  0  0  0  0  0  0  0
    3.5088    0.7623    0.1100 O   0  0  0  0  0  0  0  0  0  0  0  0
    2.2526    1.1500    0.3888 C   0  0  0  0  0  0  0  0  0  0  0  0
    1.9572    2.3426    0.6318 O   0  0  0  0  0  0  0  0  0  0  0  0
    1.3831    0.0934    0.3199 C   0  0  0  0  0  0  0  0  0  0  0  0
    0.0554    0.1910    0.4966 C   0  0  0  0  0  0  0  0  0  0  0  0
    4.5807   -1.2201   -1.0341 C   0  0  1  0  0  0  0  0  0  0  0  0
    5.4596   -0.1777   -1.4704 O   0  0  0  0  0  0  0  0  0  0  0  0
    7.2705   -2.9988    0.3758 H   0  0  0  0  0  0  0  0  0  0  0  0
    6.4687   -1.5789    1.0035 H   0  0  0  0  0  0  0  0  0  0  0  0
    7.3199   -1.4996   -0.5204 H   0  0  0  0  0  0  0  0  0  0  0  0
    6.5620   -4.0520   -1.6646 H   0  0  0  0  0  0  0  0  0  0  0  0
    6.1063   -2.6495   -2.6688 H   0  0  0  0  0  0  0  0  0  0  0  0
    5.0104   -4.8671   -3.2584 H   0  0  0  0  0  0  0  0  0  0  0  0
    3.9605   -3.4468   -3.0265 H   0  0  0  0  0  0  0  0  0  0  0  0
    2.8155   -5.2813   -1.9387 H   0  0  0  0  0  0  0  0  0  0  0  0
    4.1810   -7.6580   -0.0523 H   0  0  0  0  0  0  0  0  0  0  0  0
    4.2921   -2.9828    1.1728 H   0  0  0  0  0  0  0  0  0  0  0  0
    5.2373   -4.3260    0.5706 H   0  0  0  0  0  0  0  0  0  0  0  0
    1.4096   -4.1258   -0.6468 H   0  0  0  0  0  0  0  0  0  0  0  0
    2.2855   -2.4975    1.5707 H   0  0  0  0  0  0  0  0  0  0  0  0
    0.7084   -2.5035    0.8006 H   0  0  0  0  0  0  0  0  0  0  0  0
    1.8191   -1.3933   -1.0740 H   0  0  0  0  0  0  0  0  0  0  0  0
    4.0658   -1.0698    0.9348 H   0  0  0  0  0  0  0  0  0  0  0  0
   -0.5374   -0.6511    0.4296 H   0  0  0  0  0  0  0  0  0  0  0  0
   -0.3721    1.1081    0.6994 H   0  0  0  0  0  0  0  0  0  0  0  0
    3.9459   -1.5514   -1.8292 H   0  0  0  0  0  0  0  0  0  0  0  0
    6.0215    0.1021   -0.7309 H   0  0  0  0  0  0  0  0  0  0  0  0
  1 21  1  0  0  0  0
  1 22  1  0  0  0  0
  1 23  1  0  0  0  0
  2  1  1  1  0  0  0
  2  3  1  0  0  0  0
  2  9  1  0  0  0  0
  2 19  1  0  0  0  0
  3  4  1  0  0  0  0
  3 24  1  0  0  0  0
  3 25  1  0  0  0  0
  4  5  1  0  0  0  0
  4 26  1  0  0  0  0
  4 27  1  0  0  0  0
  5  6  1  0  0  0  0
  5  8  1  0  0  0  0
  5 28  1  6  0  0  0
  6  7  1  0  0  0  0
  7 29  1  0  0  0  0
  8  9  1  0  0  0  0
  8 10  2  0  0  0  0
  9 30  1  0  0  0  0
  9 31  1  0  0  0  0
 10 11  1  0  0  0  0
 10 32  1  0  0  0  0
 11 12  1  0  0  0  0
 11 33  1  0  0  0  0
 11 34  1  0  0  0  0
 12 13  1  0  0  0  0
 12 17  1  0  0  0  0
 12 35  1  6  0  0  0
 13 14  1  0  0  0  0
 13 19  1  0  0  0  0
 13 36  1  1  0  0  0
 14 15  1  0  0  0  0
 15 16  2  0  0  0  0
 15 17  1  0  0  0  0
 17 18  2  0  0  0  0
 18 37  1  0  0  0  0
 18 38  1  0  0  0  0
 19 20  1  0  0  0  0
 19 39  1  6  0  0  0
 20 40  1  0  0  0  0
M  END
$$$$
Row35
 OpenBabel08252322323D

 56 59  0  0  1  0  0  0  0  0999 V2000
    1.5171   -3.3877   -0.7022 C   0  0  0  0  0  0  0  0  0  0  0  0
    1.2753   -2.9698    0.8042 C   0  0  2  0  0  0  0  0  0  0  0  0
    2.4888   -2.1260    1.3454 C   0  0  0  0  0  0  0  0  0  0  0  0
    3.8196   -2.9344    1.4487 C   0  0  2  0  0  0  0  0  0  0  0  0
    4.3746   -3.0842    0.1464 O   0  0  0  0  0  0  0  0  0  0  0  0
    3.6802   -4.2995    2.2293 C   0  0  1  0  0  0  0  0  0  0  0  0
    2.3929   -5.1191    1.8250 C   0  0  1  0  0  0  0  0  0  0  0  0
    2.2138   -6.3228    2.7994 C   0  0  0  0  0  0  0  0  0  0  0  0
    3.4909   -7.1946    2.8574 C   0  0  0  0  0  0  0  0  0  0  0  0
    4.6952   -6.4062    3.1667 C   0  0  0  0  0  0  0  0  0  0  0  0
    5.5028   -6.8115    4.1752 C   0  0  0  0  0  0  0  0  0  0  0  0
    6.6910   -6.1816    4.5025 C   0  0  0  0  0  0  0  0  0  0  0  0
    7.2720   -6.4606    5.5774 O   0  0  0  0  0  0  0  0  0  0  0  0
    7.2868   -5.1827    3.5940 C   0  0  0  0  0  0  0  0  0  0  0  0
    6.1509   -4.3260    2.9872 C   0  0  0  0  0  0  0  0  0  0  0  0
    4.9985   -5.1978    2.3324 C   0  0  2  0  0  0  0  0  0  0  0  0
    5.5141   -5.7226    0.9400 C   0  0  0  0  0  0  0  0  0  0  0  0
    1.1365   -4.1811    1.7911 C   0  0  2  0  0  0  0  0  0  0  0  0
   -0.2411   -4.7801    1.4508 C   0  0  0  0  0  0  0  0  0  0  0  0
   -1.1022   -3.5571    1.0444 C   0  0  0  0  0  0  0  0  0  0  0  0
   -0.1538   -2.3075    0.9399 C   0  0  1  0  0  0  0  0  0  0  0  0
   -0.2518   -1.6036    2.1861 O   0  0  0  0  0  0  0  0  0  0  0  0
   -0.5511   -1.3054   -0.1127 C   0  0  0  0  0  0  0  0  0  0  0  0
   -1.5935   -1.4835   -0.7867 O   0  0  0  0  0  0  0  0  0  0  0  0
    0.2091   -0.0666   -0.4127 C   0  0  0  0  0  0  0  0  0  0  0  0
    0.4071    0.7276    0.7484 O   0  0  0  0  0  0  0  0  0  0  0  0
    2.4838   -3.8364   -0.7971 H   0  0  0  0  0  0  0  0  0  0  0  0
    1.4638   -2.5200   -1.3260 H   0  0  0  0  0  0  0  0  0  0  0  0
    0.7672   -4.0894   -1.0024 H   0  0  0  0  0  0  0  0  0  0  0  0
    2.2387   -1.7614    2.3198 H   0  0  0  0  0  0  0  0  0  0  0  0
    2.6571   -1.3356    0.6441 H   0  0  0  0  0  0  0  0  0  0  0  0
    4.5030   -2.3741    2.0520 H   0  0  0  0  0  0  0  0  0  0  0  0
    3.7625   -3.5913   -0.4096 H   0  0  0  0  0  0  0  0  0  0  0  0
    3.5364   -3.9806    3.2405 H   0  0  0  0  0  0  0  0  0  0  0  0
    2.5084   -5.5155    0.8379 H   0  0  0  0  0  0  0  0  0  0  0  0
    1.3958   -6.9249    2.4628 H   0  0  0  0  0  0  0  0  0  0  0  0
    2.0228   -5.9382    3.7795 H   0  0  0  0  0  0  0  0  0  0  0  0
    3.6258   -7.6700    1.9083 H   0  0  0  0  0  0  0  0  0  0  0  0
    3.3608   -7.9121    3.6404 H   0  0  0  0  0  0  0  0  0  0  0  0
    5.2171   -7.6339    4.7293 H   0  0  0  0  0  0  0  0  0  0  0  0
    7.8201   -5.6805    2.8112 H   0  0  0  0  0  0  0  0  0  0  0  0
    7.9667   -4.5576    4.1342 H   0  0  0  0  0  0  0  0  0  0  0  0
    6.5681   -3.6911    2.2337 H   0  0  0  0  0  0  0  0  0  0  0  0
    5.7127   -3.7642    3.7854 H   0  0  0  0  0  0  0  0  0  0  0  0
    4.7523   -6.3149    0.4777 H   0  0  0  0  0  0  0  0  0  0  0  0
    6.3903   -6.3192    1.0859 H   0  0  0  0  0  0  0  0  0  0  0  0
    5.7501   -4.8903    0.3103 H   0  0  0  0  0  0  0  0  0  0  0  0
    1.1425   -3.9126    2.8268 H   0  0  0  0  0  0  0  0  0  0  0  0
   -0.6609   -5.2727    2.3029 H   0  0  0  0  0  0  0  0  0  0  0  0
   -0.1862   -5.5163    0.6762 H   0  0  0  0  0  0  0  0  0  0  0  0
   -1.8546   -3.3809    1.7845 H   0  0  0  0  0  0  0  0  0  0  0  0
   -1.5839   -3.7373    0.1061 H   0  0  0  0  0  0  0  0  0  0  0  0
   -0.0070   -2.1974    2.9130 H   0  0  0  0  0  0  0  0  0  0  0  0
   -0.3340    0.5062   -1.1351 H   0  0  0  0  0  0  0  0  0  0  0  0
    1.1700   -0.3500   -0.7885 H   0  0  0  0  0  0  0  0  0  0  0  0
   -0.4532    0.9964    1.1068 H   0  0  0  0  0  0  0  0  0  0  0  0
  1 27  1  0  0  0  0
  1 28  1  0  0  0  0
  1 29  1  0  0  0  0
  2  1  1  6  0  0  0
  2  3  1  0  0  0  0
  2 18  1  0  0  0  0
  2 21  1  0  0  0  0
  3  4  1  0  0  0  0
  3 30  1  0  0  0  0
  3 31  1  0  0  0  0
  4  5  1  0  0  0  0
  4  6  1  0  0  0  0
  4 32  1  1  0  0  0
  5 33  1  0  0  0  0
  6  7  1  0  0  0  0
  6 16  1  0  0  0  0
  6 34  1  1  0  0  0
  7  8  1  0  0  0  0
  7 18  1  0  0  0  0
  7 35  1  6  0  0  0
  8  9  1  0  0  0  0
  8 36  1  0  0  0  0
  8 37  1  0  0  0  0
  9 10  1  0  0  0  0
  9 38  1  0  0  0  0
  9 39  1  0  0  0  0
 10 11  2  0  0  0  0
 10 16  1  0  0  0  0
 11 12  1  0  0  0  0
 11 40  1  0  0  0  0
 12 13  2  0  0  0  0
 12 14  1  0  0  0  0
 14 15  1  0  0  0  0
 14 41  1  0  0  0  0
 14 42  1  0  0  0  0
 15 16  1  0  0  0  0
 15 43  1  0  0  0  0
 15 44  1  0  0  0  0
 16 17  1  6  0  0  0
 17 45  1  0  0  0  0
 17 46  1  0  0  0  0
 17 47  1  0  0  0  0
 18 19  1  0  0  0  0
 18 48  1  1  0  0  0
 19 20  1  0  0  0  0
 19 49  1  0  0  0  0
 19 50  1  0  0  0  0
 20 21  1  0  0  0  0
 20 51  1  0  0  0  0
 20 52  1  0  0  0  0
 21 22  1  1  0  0  0
 21 23  1  0  0  0  0
 22 53  1  0  0  0  0
 23 24  2  0  0  0  0
 23 25  1  0  0  0  0
 25 26  1  0  0  0  0
 25 54  1  0  0  0  0
 25 55  1  0  0  0  0
 26 56  1  0  0  0  0
M  END
$$$$
Row36
 OpenBabel08252322323D

 54 57  0  0  1  0  0  0  0  0999 V2000
    1.5350   -3.3742   -0.6882 C   0  0  0  0  0  0  0  0  0  0  0  0
    1.2863   -2.9679    0.8183 C   0  0  2  0  0  0  0  0  0  0  0  0
    2.4996   -2.1304    1.3628 C   0  0  0  0  0  0  0  0  0  0  0  0
    3.8320   -2.9408    1.4753 C   0  0  2  0  0  0  0  0  0  0  0  0
    4.4120   -3.0689    0.1832 O   0  0  0  0  0  0  0  0  0  0  0  0
    3.6971   -4.3179    2.2381 C   0  0  1  0  0  0  0  0  0  0  0  0
    2.4001   -5.1275    1.8325 C   0  0  1  0  0  0  0  0  0  0  0  0
    2.2157   -6.3482    2.7903 C   0  0  0  0  0  0  0  0  0  0  0  0
    3.4849   -7.2370    2.8260 C   0  0  0  0  0  0  0  0  0  0  0  0
    4.6701   -6.4345    3.1580 C   0  0  0  0  0  0  0  0  0  0  0  0
    5.4204   -6.7621    4.2348 C   0  0  0  0  0  0  0  0  0  0  0  0
    6.5054   -5.9960    4.6230 C   0  0  0  0  0  0  0  0  0  0  0  0
    7.1901   -6.3393    5.6155 O   0  0  0  0  0  0  0  0  0  0  0  0
    6.8414   -4.8451    3.9375 C   0  0  0  0  0  0  0  0  0  0  0  0
    6.1454   -4.4669    2.8529 C   0  0  0  0  0  0  0  0  0  0  0  0
    5.0006   -5.2407    2.3070 C   0  0  2  0  0  0  0  0  0  0  0  0
    5.4993   -5.7727    0.9126 C   0  0  0  0  0  0  0  0  0  0  0  0
    1.1470   -4.1817    1.8020 C   0  0  2  0  0  0  0  0  0  0  0  0
   -0.2349   -4.7747    1.4661 C   0  0  0  0  0  0  0  0  0  0  0  0
   -1.0943   -3.5540    1.0497 C   0  0  0  0  0  0  0  0  0  0  0  0
   -0.1446   -2.3049    0.9486 C   0  0  1  0  0  0  0  0  0  0  0  0
   -0.2472   -1.6024    2.1949 O   0  0  0  0  0  0  0  0  0  0  0  0
   -0.5537   -1.3018   -0.1009 C   0  0  0  0  0  0  0  0  0  0  0  0
   -1.6063   -1.4792   -0.7613 O   0  0  0  0  0  0  0  0  0  0  0  0
    0.1974   -0.0581   -0.4034 C   0  0  0  0  0  0  0  0  0  0  0  0
    0.4070    0.7359    0.7575 O   0  0  0  0  0  0  0  0  0  0  0  0
    2.5017   -3.8232   -0.7816 H   0  0  0  0  0  0  0  0  0  0  0  0
    1.4858   -2.5017   -1.3057 H   0  0  0  0  0  0  0  0  0  0  0  0
    0.7859   -4.0728   -0.9975 H   0  0  0  0  0  0  0  0  0  0  0  0
    2.2458   -1.7635    2.3354 H   0  0  0  0  0  0  0  0  0  0  0  0
    2.6740   -1.3440    0.6585 H   0  0  0  0  0  0  0  0  0  0  0  0
    4.4977   -2.3836    2.1009 H   0  0  0  0  0  0  0  0  0  0  0  0
    3.8145   -3.5732   -0.3909 H   0  0  0  0  0  0  0  0  0  0  0  0
    3.5792   -4.0007    3.2532 H   0  0  0  0  0  0  0  0  0  0  0  0
    2.5121   -5.5156    0.8417 H   0  0  0  0  0  0  0  0  0  0  0  0
    1.3889   -6.9358    2.4498 H   0  0  0  0  0  0  0  0  0  0  0  0
    2.0372   -5.9769    3.7778 H   0  0  0  0  0  0  0  0  0  0  0  0
    3.6243   -7.6894    1.8664 H   0  0  0  0  0  0  0  0  0  0  0  0
    3.3574   -7.9898    3.5756 H   0  0  0  0  0  0  0  0  0  0  0  0
    5.1777   -7.6040    4.7801 H   0  0  0  0  0  0  0  0  0  0  0  0
    7.6348   -4.2703    4.2617 H   0  0  0  0  0  0  0  0  0  0  0  0
    6.4197   -3.5946    2.3745 H   0  0  0  0  0  0  0  0  0  0  0  0
    4.7227   -6.3461    0.4511 H   0  0  0  0  0  0  0  0  0  0  0  0
    6.3621   -6.3895    1.0540 H   0  0  0  0  0  0  0  0  0  0  0  0
    5.7522   -4.9442    0.2845 H   0  0  0  0  0  0  0  0  0  0  0  0
    1.1596   -3.9140    2.8379 H   0  0  0  0  0  0  0  0  0  0  0  0
   -0.6563   -5.2588    2.3222 H   0  0  0  0  0  0  0  0  0  0  0  0
   -0.1820   -5.5151    0.6955 H   0  0  0  0  0  0  0  0  0  0  0  0
   -1.8522   -3.3758    1.7837 H   0  0  0  0  0  0  0  0  0  0  0  0
   -1.5700   -3.7371    0.1089 H   0  0  0  0  0  0  0  0  0  0  0  0
    0.0041   -2.1942    2.9212 H   0  0  0  0  0  0  0  0  0  0  0  0
   -0.3566    0.5145   -1.1176 H   0  0  0  0  0  0  0  0  0  0  0  0
    1.1556   -0.3374   -0.7890 H   0  0  0  0  0  0  0  0  0  0  0  0
   -0.4498    1.0020    1.1262 H   0  0  0  0  0  0  0  0  0  0  0  0
  1 27  1  0  0  0  0
  1 28  1  0  0  0  0
  1 29  1  0  0  0  0
  2  1  1  6  0  0  0
  2  3  1  0  0  0  0
  2 18  1  0  0  0  0
  2 21  1  0  0  0  0
  3  4  1  0  0  0  0
  3 30  1  0  0  0  0
  3 31  1  0  0  0  0
  4  5  1  0  0  0  0
  4  6  1  0  0  0  0
  4 32  1  1  0  0  0
  5 33  1  0  0  0  0
  6  7  1  0  0  0  0
  6 16  1  0  0  0  0
  6 34  1  1  0  0  0
  7  8  1  0  0  0  0
  7 18  1  0  0  0  0
  7 35  1  6  0  0  0
  8  9  1  0  0  0  0
  8 36  1  0  0  0  0
  8 37  1  0  0  0  0
  9 10  1  0  0  0  0
  9 38  1  0  0  0  0
  9 39  1  0  0  0  0
 10 11  2  0  0  0  0
 10 16  1  0  0  0  0
 11 12  1  0  0  0  0
 11 40  1  0  0  0  0
 12 13  2  0  0  0  0
 12 14  1  0  0  0  0
 14 15  2  0  0  0  0
 14 41  1  0  0  0  0
 15 16  1  0  0  0  0
 15 42  1  0  0  0  0
 16 17  1  6  0  0  0
 17 43  1  0  0  0  0
 17 44  1  0  0  0  0
 17 45  1  0  0  0  0
 18 19  1  0  0  0  0
 18 46  1  1  0  0  0
 19 20  1  0  0  0  0
 19 47  1  0  0  0  0
 19 48  1  0  0  0  0
 20 21  1  0  0  0  0
 20 49  1  0  0  0  0
 20 50  1  0  0  0  0
 21 22  1  1  0  0  0
 21 23  1  0  0  0  0
 22 51  1  0  0  0  0
 23 24  2  0  0  0  0
 23 25  1  0  0  0  0
 25 26  1  0  0  0  0
 25 52  1  0  0  0  0
 25 53  1  0  0  0  0
 26 54  1  0  0  0  0
M  END
$$$$
Row37
 OpenBabel08252322323D

 63 67  0  0  0  0  0  0  0  0999 V2000
    7.5522    4.3069    8.0754 C   0  0  0  0  0  0  0  0  0  0  0  0
    6.8358    3.1904    7.2098 C   0  0  2  0  0  0  0  0  0  0  0  0
    5.3126    3.5317    7.1079 C   0  0  0  0  0  0  0  0  0  0  0  0
    4.5635    3.4406    8.4784 C   0  0  1  0  0  0  0  0  0  0  0  0
    3.1671    3.4869    8.1762 O   0  0  0  0  0  0  0  0  0  0  0  0
    4.8805    2.1660    9.3596 C   0  0  1  0  0  0  0  0  0  0  0  0
    6.3880    1.6748    9.2700 C   0  0  1  0  0  0  0  0  0  0  0  0
    6.5466    0.2715    9.9337 C   0  0  0  0  0  0  0  0  0  0  0  0
    6.0523    0.2788   11.4050 C   0  0  0  0  0  0  0  0  0  0  0  0
    4.5819    0.7840   11.5112 C   0  0  1  0  0  0  0  0  0  0  0  0
    4.0183    0.6421   12.9611 C   0  0  0  0  0  0  0  0  0  0  0  0
    2.5052    0.9818   13.0173 C   0  0  1  0  0  0  0  0  0  0  0  0
    2.0577    0.9797   14.3728 O   0  0  0  0  0  0  0  0  0  0  0  0
    2.1837    2.3547   12.3738 C   0  0  0  0  0  0  0  0  0  0  0  0
    2.8179    2.5188   10.9601 C   0  0  0  0  0  0  0  0  0  0  0  0
    4.3672    2.2225   10.8762 C   0  0  2  0  0  0  0  0  0  0  0  0
    5.1135    3.3495   11.6909 C   0  0  0  0  0  0  0  0  0  0  0  0
    6.9213    1.7342    7.7961 C   0  0  1  0  0  0  0  0  0  0  0  0
    6.1227    0.7855    7.0606 O   0  0  0  0  0  0  0  0  0  0  0  0
    8.3927    1.3457    7.5095 C   0  0  0  0  0  0  0  0  0  0  0  0
    8.6979    1.9645    6.1175 C   0  0  0  0  0  0  0  0  0  0  0  0
    7.5821    3.0282    5.8305 C   0  0  2  0  0  0  0  0  0  0  0  0
    7.9703    4.3224    5.1509 C   0  0  0  0  0  0  0  0  0  0  0  0
    9.2024    4.9720    5.4055 C   0  0  0  0  0  0  0  0  0  0  0  0
    9.4733    6.2060    4.8987 O   0  0  0  0  0  0  0  0  0  0  0  0
    8.6280    6.9220    4.1103 C   0  0  0  0  0  0  0  0  0  0  0  0
    9.0870    8.0705    3.7804 O   0  0  0  0  0  0  0  0  0  0  0  0
    7.3740    6.2930    3.7797 C   0  0  0  0  0  0  0  0  0  0  0  0
    7.0469    4.9854    4.2986 C   0  0  0  0  0  0  0  0  0  0  0  0
    7.0434    4.4144    9.0105 H   0  0  0  0  0  0  0  0  0  0  0  0
    7.5286    5.2373    7.5475 H   0  0  0  0  0  0  0  0  0  0  0  0
    8.5685    4.0232    8.2529 H   0  0  0  0  0  0  0  0  0  0  0  0
    4.8560    2.8457    6.4253 H   0  0  0  0  0  0  0  0  0  0  0  0
    5.2372    4.5451    6.7730 H   0  0  0  0  0  0  0  0  0  0  0  0
    4.9027    4.2558    9.0828 H   0  0  0  0  0  0  0  0  0  0  0  0
    2.9293    2.7224    7.6285 H   0  0  0  0  0  0  0  0  0  0  0  0
    4.2771    1.4171    8.8906 H   0  0  0  0  0  0  0  0  0  0  0  0
    7.0061    2.3471    9.8276 H   0  0  0  0  0  0  0  0  0  0  0  0
    7.5796   -0.0070    9.9154 H   0  0  0  0  0  0  0  0  0  0  0  0
    5.9533   -0.4289    9.3838 H   0  0  0  0  0  0  0  0  0  0  0  0
    6.6836    0.9229   11.9807 H   0  0  0  0  0  0  0  0  0  0  0  0
    6.0904   -0.7238   11.7769 H   0  0  0  0  0  0  0  0  0  0  0  0
    3.9895    0.1334   10.9023 H   0  0  0  0  0  0  0  0  0  0  0  0
    4.5490    1.3095   13.6076 H   0  0  0  0  0  0  0  0  0  0  0  0
    4.1469   -0.3730   13.2741 H   0  0  0  0  0  0  0  0  0  0  0  0
    1.9922    0.2301   12.4545 H   0  0  0  0  0  0  0  0  0  0  0  0
    2.5305    1.6650   14.8705 H   0  0  0  0  0  0  0  0  0  0  0  0
    2.5609    3.1278   13.0101 H   0  0  0  0  0  0  0  0  0  0  0  0
    1.1215    2.4183   12.2611 H   0  0  0  0  0  0  0  0  0  0  0  0
    2.6565    3.5271   10.6405 H   0  0  0  0  0  0  0  0  0  0  0  0
    2.3433    1.7900   10.3367 H   0  0  0  0  0  0  0  0  0  0  0  0
    6.1689    3.1771   11.6536 H   0  0  0  0  0  0  0  0  0  0  0  0
    4.7848    3.3307   12.7090 H   0  0  0  0  0  0  0  0  0  0  0  0
    4.8928    4.3048   11.2625 H   0  0  0  0  0  0  0  0  0  0  0  0
    5.1822    0.9774    7.2004 H   0  0  0  0  0  0  0  0  0  0  0  0
    8.5040    0.2818    7.4825 H   0  0  0  0  0  0  0  0  0  0  0  0
    9.0607    1.7005    8.2664 H   0  0  0  0  0  0  0  0  0  0  0  0
    8.6811    1.2032    5.3658 H   0  0  0  0  0  0  0  0  0  0  0  0
    9.6673    2.4173    6.1065 H   0  0  0  0  0  0  0  0  0  0  0  0
    6.9463    2.6682    5.0488 H   0  0  0  0  0  0  0  0  0  0  0  0
    9.9109    4.4994    5.9883 H   0  0  0  0  0  0  0  0  0  0  0  0
    6.7033    6.7817    3.1662 H   0  0  0  0  0  0  0  0  0  0  0  0
    6.1507    4.5368    4.0525 H   0  0  0  0  0  0  0  0  0  0  0  0
  1 30  1  0  0  0  0
  1 31  1  0  0  0  0
  1 32  1  0  0  0  0
  2  1  1  1  0  0  0
  2  3  1  0  0  0  0
  2 18  1  0  0  0  0
  2 22  1  0  0  0  0
  3  4  1  0  0  0  0
  3 33  1  0  0  0  0
  3 34  1  0  0  0  0
  4  5  1  0  0  0  0
  4  6  1  0  0  0  0
  4 35  1  1  0  0  0
  5 36  1  0  0  0  0
  6  7  1  0  0  0  0
  6 16  1  0  0  0  0
  6 37  1  6  0  0  0
  7  8  1  0  0  0  0
  7 18  1  0  0  0  0
  7 38  1  1  0  0  0
  8  9  1  0  0  0  0
  8 39  1  0  0  0  0
  8 40  1  0  0  0  0
  9 10  1  0  0  0  0
  9 41  1  0  0  0  0
  9 42  1  0  0  0  0
 10 11  1  0  0  0  0
 10 16  1  0  0  0  0
 10 43  1  6  0  0  0
 11 12  1  0  0  0  0
 11 44  1  0  0  0  0
 11 45  1  0  0  0  0
 12 13  1  0  0  0  0
 12 14  1  0  0  0  0
 12 46  1  6  0  0  0
 13 47  1  0  0  0  0
 14 15  1  0  0  0  0
 14 48  1  0  0  0  0
 14 49  1  0  0  0  0
 15 16  1  0  0  0  0
 15 50  1  0  0  0  0
 15 51  1  0  0  0  0
 16 17  1  1  0  0  0
 17 52  1  0  0  0  0
 17 53  1  0  0  0  0
 17 54  1  0  0  0  0
 18 19  1  6  0  0  0
 18 20  1  0  0  0  0
 19 55  1  0  0  0  0
 20 21  1  0  0  0  0
 20 56  1  0  0  0  0
 20 57  1  0  0  0  0
 21 22  1  0  0  0  0
 21 58  1  0  0  0  0
 21 59  1  0  0  0  0
 22 23  1  0  0  0  0
 22 60  1  6  0  0  0
 23 24  2  0  0  0  0
 23 29  1  0  0  0  0
 24 25  1  0  0  0  0
 24 61  1  0  0  0  0
 25 26  1  0  0  0  0
 26 27  2  0  0  0  0
 26 28  1  0  0  0  0
 28 29  2  0  0  0  0
 28 62  1  0  0  0  0
 29 63  1  0  0  0  0
M  END
$$$$
Row38
 OpenBabel08252322323D

 52 55  0  0  1  0  0  0  0  0999 V2000
    1.6460   -3.4160   -0.6331 C   0  0  0  0  0  0  0  0  0  0  0  0
    1.3474   -2.9860    0.8598 C   0  0  2  0  0  0  0  0  0  0  0  0
    2.5737   -2.1700    1.4069 C   0  0  0  0  0  0  0  0  0  0  0  0
    3.7767   -3.0493    1.5205 C   0  0  0  0  0  0  0  0  0  0  0  0
    4.8015   -2.7060    0.8876 O   0  0  0  0  0  0  0  0  0  0  0  0
    3.7051   -4.3273    2.3191 C   0  0  1  0  0  0  0  0  0  0  0  0
    2.4049   -5.1339    1.9139 C   0  0  1  0  0  0  0  0  0  0  0  0
    2.2019   -6.3401    2.8777 C   0  0  0  0  0  0  0  0  0  0  0  0
    3.4535   -7.2502    2.9019 C   0  0  0  0  0  0  0  0  0  0  0  0
    4.6585   -6.4704    3.2200 C   0  0  0  0  0  0  0  0  0  0  0  0
    5.4182   -6.8307    4.2799 C   0  0  0  0  0  0  0  0  0  0  0  0
    6.5234   -6.0916    4.6689 C   0  0  0  0  0  0  0  0  0  0  0  0
    7.2191   -6.4758    5.6386 O   0  0  0  0  0  0  0  0  0  0  0  0
    6.8535   -4.9197    4.0145 C   0  0  0  0  0  0  0  0  0  0  0  0
    6.1454   -4.5079    2.9505 C   0  0  0  0  0  0  0  0  0  0  0  0
    4.9964   -5.2644    2.3858 C   0  0  2  0  0  0  0  0  0  0  0  0
    5.4762   -5.7697    0.9769 C   0  0  0  0  0  0  0  0  0  0  0  0
    1.1603   -4.1846    1.8585 C   0  0  2  0  0  0  0  0  0  0  0  0
   -0.2140   -4.7775    1.4970 C   0  0  0  0  0  0  0  0  0  0  0  0
   -1.0368   -3.5576    1.0158 C   0  0  0  0  0  0  0  0  0  0  0  0
   -0.0786   -2.3127    0.9502 C   0  0  1  0  0  0  0  0  0  0  0  0
   -0.2087   -1.6181    2.1982 O   0  0  0  0  0  0  0  0  0  0  0  0
   -0.4482   -1.3073   -0.1092 C   0  0  0  0  0  0  0  0  0  0  0  0
   -1.4635   -1.4906   -0.8226 O   0  0  0  0  0  0  0  0  0  0  0  0
    0.2927   -0.0495   -0.3673 C   0  0  0  0  0  0  0  0  0  0  0  0
    0.4218    0.7410    0.8060 O   0  0  0  0  0  0  0  0  0  0  0  0
    2.6129   -3.8710   -0.6866 H   0  0  0  0  0  0  0  0  0  0  0  0
    1.6228   -2.5524   -1.2644 H   0  0  0  0  0  0  0  0  0  0  0  0
    0.9042   -4.1154   -0.9580 H   0  0  0  0  0  0  0  0  0  0  0  0
    2.3326   -1.7762    2.3722 H   0  0  0  0  0  0  0  0  0  0  0  0
    2.7902   -1.3722    0.7275 H   0  0  0  0  0  0  0  0  0  0  0  0
    3.6579   -3.9874    3.3326 H   0  0  0  0  0  0  0  0  0  0  0  0
    2.5264   -5.5341    0.9290 H   0  0  0  0  0  0  0  0  0  0  0  0
    1.3598   -6.9125    2.5488 H   0  0  0  0  0  0  0  0  0  0  0  0
    2.0370   -5.9623    3.8651 H   0  0  0  0  0  0  0  0  0  0  0  0
    3.5742   -7.7067    1.9417 H   0  0  0  0  0  0  0  0  0  0  0  0
    3.3197   -7.9983    3.6552 H   0  0  0  0  0  0  0  0  0  0  0  0
    5.1678   -7.6784    4.8126 H   0  0  0  0  0  0  0  0  0  0  0  0
    7.6516   -4.3560    4.3467 H   0  0  0  0  0  0  0  0  0  0  0  0
    6.4130   -3.6186    2.5004 H   0  0  0  0  0  0  0  0  0  0  0  0
    4.6903   -6.3268    0.5112 H   0  0  0  0  0  0  0  0  0  0  0  0
    6.3353   -6.3963    1.0963 H   0  0  0  0  0  0  0  0  0  0  0  0
    5.7296   -4.9300    0.3641 H   0  0  0  0  0  0  0  0  0  0  0  0
    1.1342   -3.9024    2.8903 H   0  0  0  0  0  0  0  0  0  0  0  0
   -0.6699   -5.2293    2.3531 H   0  0  0  0  0  0  0  0  0  0  0  0
   -0.1475   -5.5462    0.7557 H   0  0  0  0  0  0  0  0  0  0  0  0
   -1.8342   -3.3649    1.7028 H   0  0  0  0  0  0  0  0  0  0  0  0
   -1.4559   -3.7523    0.0507 H   0  0  0  0  0  0  0  0  0  0  0  0
    0.0177   -2.2171    2.9268 H   0  0  0  0  0  0  0  0  0  0  0  0
   -0.2329    0.5154   -1.1086 H   0  0  0  0  0  0  0  0  0  0  0  0
    1.2756   -0.3071   -0.7027 H   0  0  0  0  0  0  0  0  0  0  0  0
   -0.4593    0.9869    1.1288 H   0  0  0  0  0  0  0  0  0  0  0  0
  1 27  1  0  0  0  0
  1 28  1  0  0  0  0
  1 29  1  0  0  0  0
  2  1  1  6  0  0  0
  2  3  1  0  0  0  0
  2 18  1  0  0  0  0
  2 21  1  0  0  0  0
  3  4  1  0  0  0  0
  3 30  1  0  0  0  0
  3 31  1  0  0  0  0
  4  5  2  0  0  0  0
  4  6  1  0  0  0  0
  6  7  1  0  0  0  0
  6 16  1  0  0  0  0
  6 32  1  1  0  0  0
  7  8  1  0  0  0  0
  7 18  1  0  0  0  0
  7 33  1  6  0  0  0
  8  9  1  0  0  0  0
  8 34  1  0  0  0  0
  8 35  1  0  0  0  0
  9 10  1  0  0  0  0
  9 36  1  0  0  0  0
  9 37  1  0  0  0  0
 10 11  2  0  0  0  0
 10 16  1  0  0  0  0
 11 12  1  0  0  0  0
 11 38  1  0  0  0  0
 12 13  2  0  0  0  0
 12 14  1  0  0  0  0
 14 15  2  0  0  0  0
 14 39  1  0  0  0  0
 15 16  1  0  0  0  0
 15 40  1  0  0  0  0
 16 17  1  6  0  0  0
 17 41  1  0  0  0  0
 17 42  1  0  0  0  0
 17 43  1  0  0  0  0
 18 19  1  0  0  0  0
 18 44  1  1  0  0  0
 19 20  1  0  0  0  0
 19 45  1  0  0  0  0
 19 46  1  0  0  0  0
 20 21  1  0  0  0  0
 20 47  1  0  0  0  0
 20 48  1  0  0  0  0
 21 22  1  1  0  0  0
 21 23  1  0  0  0  0
 22 49  1  0  0  0  0
 23 24  2  0  0  0  0
 23 25  1  0  0  0  0
 25 26  1  0  0  0  0
 25 50  1  0  0  0  0
 25 51  1  0  0  0  0
 26 52  1  0  0  0  0
M  END
$$$$
Row39
 OpenBabel08252322323D

 48 52  0  0  0  0  0  0  0  0999 V2000
    2.1200    5.9385   -1.4016 C   0  0  0  0  0  0  0  0  0  0  0  0
    0.7199    5.7855   -0.6972 C   0  0  2  0  0  0  0  0  0  0  0  0
    0.6505    4.3462   -0.0440 C   0  0  0  0  0  0  0  0  0  0  0  0
    0.8227    3.1996   -1.0900 C   0  0  2  0  0  0  0  0  0  0  0  0
    0.1134    3.4792   -2.3109 O   0  0  0  0  0  0  0  0  0  0  0  0
   -0.5047    4.6560   -2.6435 C   0  0  0  0  0  0  0  0  0  0  0  0
   -1.1868    4.6655   -3.6938 O   0  0  0  0  0  0  0  0  0  0  0  0
   -0.4485    5.8533   -1.7531 C   0  0  2  0  0  0  0  0  0  0  0  0
   -0.4803    7.2132   -2.5250 C   0  0  0  0  0  0  0  0  0  0  0  0
   -0.0892    8.4752   -1.6897 C   0  0  0  0  0  0  0  0  0  0  0  0
   -0.1823    8.3234   -0.1206 C   0  0  1  0  0  0  0  0  0  0  0  0
   -1.7122    8.4348    0.2500 C   0  0  0  0  0  0  0  0  0  0  0  0
    0.4502    6.9207    0.3943 C   0  0  2  0  0  0  0  0  0  0  0  0
    1.6540    7.2367    1.3781 C   0  0  2  0  0  0  0  0  0  0  0  0
    1.0709    8.0405    2.4532 O   0  0  0  0  0  0  0  0  0  0  0  0
    0.5118    9.2552    2.0833 C   0  0  0  0  0  0  0  0  0  0  0  0
    0.0014   10.0408    2.9126 O   0  0  0  0  0  0  0  0  0  0  0  0
    0.6049    9.5168    0.6069 C   0  0  2  0  0  0  0  0  0  0  0  0
    0.1683   10.8299    0.2484 O   0  0  0  0  0  0  0  0  0  0  0  0
    2.0499    9.3372    0.3362 C   0  0  0  0  0  0  0  0  0  0  0  0
    2.5933    8.1592    0.7157 C   0  0  0  0  0  0  0  0  0  0  0  0
    0.4494    1.8629   -0.5662 C   0  0  0  0  0  0  0  0  0  0  0  0
    1.3220    0.8159   -0.2651 C   0  0  0  0  0  0  0  0  0  0  0  0
    0.6335   -0.2527    0.2006 O   0  0  0  0  0  0  0  0  0  0  0  0
   -0.6769    0.0834    0.1981 C   0  0  0  0  0  0  0  0  0  0  0  0
   -0.8225    1.3828   -0.2733 C   0  0  0  0  0  0  0  0  0  0  0  0
    2.2457    5.1549   -2.1192 H   0  0  0  0  0  0  0  0  0  0  0  0
    2.8967    5.8784   -0.6681 H   0  0  0  0  0  0  0  0  0  0  0  0
    2.1688    6.8862   -1.8960 H   0  0  0  0  0  0  0  0  0  0  0  0
   -0.2999    4.2330    0.4343 H   0  0  0  0  0  0  0  0  0  0  0  0
    1.4573    4.2696    0.6546 H   0  0  0  0  0  0  0  0  0  0  0  0
    1.8705    3.1660   -1.3042 H   0  0  0  0  0  0  0  0  0  0  0  0
   -1.3596    5.8205   -1.1930 H   0  0  0  0  0  0  0  0  0  0  0  0
   -1.4739    7.3584   -2.8946 H   0  0  0  0  0  0  0  0  0  0  0  0
    0.2602    7.1304   -3.2930 H   0  0  0  0  0  0  0  0  0  0  0  0
   -0.7388    9.2743   -1.9803 H   0  0  0  0  0  0  0  0  0  0  0  0
    0.9446    8.6520   -1.9014 H   0  0  0  0  0  0  0  0  0  0  0  0
   -2.2533    7.6449   -0.2277 H   0  0  0  0  0  0  0  0  0  0  0  0
   -2.0917    9.3786   -0.0817 H   0  0  0  0  0  0  0  0  0  0  0  0
   -1.8289    8.3564    1.3107 H   0  0  0  0  0  0  0  0  0  0  0  0
   -0.3197    6.4151    0.9388 H   0  0  0  0  0  0  0  0  0  0  0  0
    2.1354    6.3329    1.6883 H   0  0  0  0  0  0  0  0  0  0  0  0
   -0.7792   10.9181    0.4362 H   0  0  0  0  0  0  0  0  0  0  0  0
    2.6126   10.0732   -0.1185 H   0  0  0  0  0  0  0  0  0  0  0  0
    3.5853    7.9248    0.5547 H   0  0  0  0  0  0  0  0  0  0  0  0
    2.3469    0.8514   -0.3811 H   0  0  0  0  0  0  0  0  0  0  0  0
   -1.4496   -0.5306    0.4998 H   0  0  0  0  0  0  0  0  0  0  0  0
   -1.7105    1.8965   -0.3853 H   0  0  0  0  0  0  0  0  0  0  0  0
  1 27  1  0  0  0  0
  1 28  1  0  0  0  0
  1 29  1  0  0  0  0
  2  1  1  6  0  0  0
  2  3  1  0  0  0  0
  2  8  1  0  0  0  0
  2 13  1  0  0  0  0
  3  4  1  0  0  0  0
  3 30  1  0  0  0  0
  3 31  1  0  0  0  0
  4  5  1  0  0  0  0
  4 22  1  0  0  0  0
  4 32  1  6  0  0  0
  5  6  1  0  0  0  0
  6  7  2  0  0  0  0
  6  8  1  0  0  0  0
  8  9  1  0  0  0  0
  8 33  1  1  0  0  0
  9 10  1  0  0  0  0
  9 34  1  0  0  0  0
  9 35  1  0  0  0  0
 10 11  1  0  0  0  0
 10 36  1  0  0  0  0
 10 37  1  0  0  0  0
 11 12  1  1  0  0  0
 11 13  1  0  0  0  0
 11 18  1  0  0  0  0
 12 38  1  0  0  0  0
 12 39  1  0  0  0  0
 12 40  1  0  0  0  0
 13 14  1  0  0  0  0
 13 41  1  1  0  0  0
 14 15  1  0  0  0  0
 14 21  1  0  0  0  0
 14 42  1  1  0  0  0
 15 16  1  0  0  0  0
 16 17  2  0  0  0  0
 16 18  1  0  0  0  0
 18 19  1  6  0  0  0
 18 20  1  0  0  0  0
 19 43  1  0  0  0  0
 20 21  2  0  0  0  0
 20 44  1  0  0  0  0
 21 45  1  0  0  0  0
 22 23  2  0  0  0  0
 22 26  1  0  0  0  0
 23 24  1  0  0  0  0
 23 46  1  0  0  0  0
 24 25  1  0  0  0  0
 25 26  2  0  0  0  0
 25 47  1  0  0  0  0
 26 48  1  0  0  0  0
M  END
$$$$
Row40
 OpenBabel08252322323D

 36 38  0  0  0  0  0  0  0  0999 V2000
    6.5259   -0.6312   -0.1595 C   0  0  0  0  0  0  0  0  0  0  0  0
    6.3373    0.9103   -0.2366 C   0  0  2  0  0  0  0  0  0  0  0  0
    4.8854    1.4702   -0.4025 C   0  0  1  0  0  0  0  0  0  0  0  0
    4.6809    1.6807   -1.9398 C   0  0  2  0  0  0  0  0  0  0  0  0
    6.1120    1.6738   -2.5655 C   0  0  0  0  0  0  0  0  0  0  0  0
    7.0068    1.4131   -1.4404 C   0  0  0  0  0  0  0  0  0  0  0  0
    8.2518    1.5180   -1.5357 O   0  0  0  0  0  0  0  0  0  0  0  0
    3.7705    2.8235   -2.1823 C   0  0  0  0  0  0  0  0  0  0  0  0
    4.1895    4.0657   -2.4969 C   0  0  0  0  0  0  0  0  0  0  0  0
    2.3341    2.6029   -1.9577 C   0  0  0  0  0  0  0  0  0  0  0  0
    1.9742    2.5524   -0.4389 C   0  0  2  0  0  0  0  0  0  0  0  0
    2.5904    3.6164    0.2891 O   0  0  0  0  0  0  0  0  0  0  0  0
    2.2726    1.2080    0.3006 C   0  5  0  0  0  0  0  0  0  0  0  0
    3.7442    0.6710    0.3189 C   0  0  1  0  0  0  0  0  0  0  0  0
    3.6042   -0.6349   -0.2385 O   0  0  0  0  0  0  0  0  0  0  0  0
    2.3353   -0.9324   -0.5496 C   0  0  0  0  0  0  0  0  0  0  0  0
    2.0164   -2.0161   -1.0894 O   0  0  0  0  0  0  0  0  0  0  0  0
    1.4945    0.0760   -0.1761 C   0  0  0  0  0  0  0  0  0  0  0  0
    0.1544    0.0058   -0.2127 C   0  0  0  0  0  0  0  0  0  0  0  0
    6.0400   -1.0066    0.7168 H   0  0  0  0  0  0  0  0  0  0  0  0
    7.5700   -0.8610   -0.1145 H   0  0  0  0  0  0  0  0  0  0  0  0
    6.0975   -1.0868   -1.0277 H   0  0  0  0  0  0  0  0  0  0  0  0
    6.7161    1.2250    0.7133 H   0  0  0  0  0  0  0  0  0  0  0  0
    4.7972    2.3973    0.1244 H   0  0  0  0  0  0  0  0  0  0  0  0
    4.1510    0.9051   -2.4522 H   0  0  0  0  0  0  0  0  0  0  0  0
    6.3332    2.6206   -3.0121 H   0  0  0  0  0  0  0  0  0  0  0  0
    6.2118    0.9426   -3.3403 H   0  0  0  0  0  0  0  0  0  0  0  0
    5.1925    4.2463   -2.6593 H   0  0  0  0  0  0  0  0  0  0  0  0
    3.5072    4.8360   -2.5753 H   0  0  0  0  0  0  0  0  0  0  0  0
    2.0536    1.6742   -2.4091 H   0  0  0  0  0  0  0  0  0  0  0  0
    1.8041    3.4241   -2.3932 H   0  0  0  0  0  0  0  0  0  0  0  0
    0.9093    2.6562   -0.4514 H   0  0  0  0  0  0  0  0  0  0  0  0
    3.5530    3.4967    0.2839 H   0  0  0  0  0  0  0  0  0  0  0  0
    4.1055    0.7445    1.3234 H   0  0  0  0  0  0  0  0  0  0  0  0
   -0.4130    0.8139    0.0874 H   0  0  0  0  0  0  0  0  0  0  0  0
   -0.3084   -0.8562   -0.5409 H   0  0  0  0  0  0  0  0  0  0  0  0
  1  2  1  0  0  0  0
  1 20  1  0  0  0  0
  1 21  1  0  0  0  0
  1 22  1  0  0  0  0
  2  3  1  0  0  0  0
  2  6  1  0  0  0  0
  2 23  1  1  0  0  0
  3  4  1  0  0  0  0
  3 14  1  0  0  0  0
  3 24  1  1  0  0  0
  4  5  1  0  0  0  0
  4  8  1  0  0  0  0
  4 25  1  6  0  0  0
  5  6  1  0  0  0  0
  5 26  1  0  0  0  0
  5 27  1  0  0  0  0
  6  7  2  0  0  0  0
  8  9  2  0  0  0  0
  8 10  1  0  0  0  0
  9 28  1  0  0  0  0
  9 29  1  0  0  0  0
 10 11  1  0  0  0  0
 10 30  1  0  0  0  0
 10 31  1  0  0  0  0
 11 12  1  0  0  0  0
 11 13  1  0  0  0  0
 11 32  1  1  0  0  0
 12 33  1  0  0  0  0
 13 14  1  0  0  0  0
 13 18  1  0  0  0  0
 14 15  1  0  0  0  0
 14 34  1  1  0  0  0
 15 16  1  0  0  0  0
 16 17  2  0  0  0  0
 16 18  1  0  0  0  0
 18 19  2  0  0  0  0
 19 35  1  0  0  0  0
 19 36  1  0  0  0  0
M  CHG  1  13  -1
M  END
$$$$
Row41
 OpenBabel08252322323D

 68 72  0  0  0  0  0  0  0  0999 V2000
   12.3833    2.3169    0.7933 C   0  0  0  0  0  0  0  0  0  0  0  0
   10.8812    2.2357    0.4103 C   0  0  1  0  0  0  0  0  0  0  0  0
   10.1436    1.1031    1.1766 C   0  0  2  0  0  0  0  0  0  0  0  0
   10.3074   -0.3246    0.5712 C   0  0  0  0  0  0  0  0  0  0  0  0
    8.8195   -0.7239    0.1085 C   0  0  0  0  0  0  0  0  0  0  0  0
    8.0934    0.6736   -0.0956 C   0  0  1  0  0  0  0  0  0  0  0  0
    6.5194    0.6596   -0.1466 C   0  0  1  0  0  0  0  0  0  0  0  0
    5.9874   -0.2534   -1.2812 C   0  0  0  0  0  0  0  0  0  0  0  0
    4.5451   -0.2070   -1.3831 C   0  0  0  0  0  0  0  0  0  0  0  0
    3.7079    0.0231   -0.3455 C   0  0  0  0  0  0  0  0  0  0  0  0
    2.2524    0.1187   -0.6217 C   0  0  0  0  0  0  0  0  0  0  0  0
    1.5518    1.4045   -0.0617 C   0  0  2  0  0  0  0  0  0  0  0  0
    1.9926    1.5935    1.4237 C   0  0  0  0  0  0  0  0  0  0  0  0
    3.5299    1.5128    1.6053 C   0  0  0  0  0  0  0  0  0  0  0  0
    4.2056    0.2011    1.0557 C   0  0  1  0  0  0  0  0  0  0  0  0
    3.7278   -1.0373    1.9032 C   0  0  0  0  0  0  0  0  0  0  0  0
    5.8094    0.2707    1.1879 C   0  0  2  0  0  0  0  0  0  0  0  0
    6.3743    1.1593    2.3462 C   0  0  0  0  0  0  0  0  0  0  0  0
    7.9146    1.0997    2.4576 C   0  0  0  0  0  0  0  0  0  0  0  0
    8.6432    1.4981    1.1183 C   0  0  1  0  0  0  0  0  0  0  0  0
    8.6812    3.0419    0.8523 C   0  0  0  0  0  0  0  0  0  0  0  0
   10.1101    3.4513    0.7793 N   0  3  2  0  0  0  0  0  0  0  0  0
   10.3765    4.6613   -0.0523 C   0  0  0  0  0  0  0  0  0  0  0  0
    0.0444    1.3476   -0.2744 N   0  3  0  0  0  0  0  0  0  0  0  0
   -0.7794    2.2230    0.6225 C   0  0  0  0  0  0  0  0  0  0  0  0
   -0.3792    1.5546   -1.6999 C   0  0  0  0  0  0  0  0  0  0  0  0
   12.8755    1.4131    0.5002 H   0  0  0  0  0  0  0  0  0  0  0  0
   12.4751    2.4460    1.8515 H   0  0  0  0  0  0  0  0  0  0  0  0
   12.8348    3.1475    0.2922 H   0  0  0  0  0  0  0  0  0  0  0  0
   10.9090    2.0843   -0.6486 H   0  0  0  0  0  0  0  0  0  0  0  0
   10.5575    1.0305    2.1606 H   0  0  0  0  0  0  0  0  0  0  0  0
   10.6738   -1.0099    1.3067 H   0  0  0  0  0  0  0  0  0  0  0  0
   11.0107   -0.3521   -0.2347 H   0  0  0  0  0  0  0  0  0  0  0  0
    8.3283   -1.3012    0.8637 H   0  0  0  0  0  0  0  0  0  0  0  0
    8.8106   -1.3260   -0.7760 H   0  0  0  0  0  0  0  0  0  0  0  0
    8.3061    1.0769   -1.0636 H   0  0  0  0  0  0  0  0  0  0  0  0
    6.2709    1.6825   -0.3385 H   0  0  0  0  0  0  0  0  0  0  0  0
    6.2874   -1.2612   -1.0829 H   0  0  0  0  0  0  0  0  0  0  0  0
    6.3954    0.0972   -2.2061 H   0  0  0  0  0  0  0  0  0  0  0  0
    4.1250   -0.3603   -2.3132 H   0  0  0  0  0  0  0  0  0  0  0  0
    1.7757   -0.7346   -0.1864 H   0  0  0  0  0  0  0  0  0  0  0  0
    2.1537    0.1655   -1.6861 H   0  0  0  0  0  0  0  0  0  0  0  0
    1.8598    2.2763   -0.6001 H   0  0  0  0  0  0  0  0  0  0  0  0
    1.5371    0.8278    2.0162 H   0  0  0  0  0  0  0  0  0  0  0  0
    1.6811    2.5696    1.7320 H   0  0  0  0  0  0  0  0  0  0  0  0
    3.7430    1.5807    2.6517 H   0  0  0  0  0  0  0  0  0  0  0  0
    3.9379    2.3182    1.0310 H   0  0  0  0  0  0  0  0  0  0  0  0
    2.6628   -1.1212    1.8429 H   0  0  0  0  0  0  0  0  0  0  0  0
    4.0178   -0.9038    2.9245 H   0  0  0  0  0  0  0  0  0  0  0  0
    4.1782   -1.9282    1.5181 H   0  0  0  0  0  0  0  0  0  0  0  0
    6.0447   -0.7408    1.4456 H   0  0  0  0  0  0  0  0  0  0  0  0
    5.9525    0.8233    3.2703 H   0  0  0  0  0  0  0  0  0  0  0  0
    6.1082    2.1730    2.1305 H   0  0  0  0  0  0  0  0  0  0  0  0
    8.1996    0.1016    2.7172 H   0  0  0  0  0  0  0  0  0  0  0  0
    8.2096    1.8058    3.2054 H   0  0  0  0  0  0  0  0  0  0  0  0
    8.1931    3.5617    1.6501 H   0  0  0  0  0  0  0  0  0  0  0  0
    8.1756    3.2783   -0.0606 H   0  0  0  0  0  0  0  0  0  0  0  0
   10.4257    3.7903    1.6881 H   0  0  0  0  0  0  0  0  0  0  0  0
   10.0919    4.4675   -1.0654 H   0  0  0  0  0  0  0  0  0  0  0  0
   11.4193    4.8980   -0.0138 H   0  0  0  0  0  0  0  0  0  0  0  0
    9.8094    5.4860    0.3260 H   0  0  0  0  0  0  0  0  0  0  0  0
   -0.1563    0.3843   -0.0056 H   0  0  0  0  0  0  0  0  0  0  0  0
   -0.6031    3.2498    0.3786 H   0  0  0  0  0  0  0  0  0  0  0  0
   -0.5063    2.0466    1.6419 H   0  0  0  0  0  0  0  0  0  0  0  0
   -1.8165    1.9972    0.4868 H   0  0  0  0  0  0  0  0  0  0  0  0
   -0.1722    2.5633   -1.9906 H   0  0  0  0  0  0  0  0  0  0  0  0
   -1.4283    1.3652   -1.7913 H   0  0  0  0  0  0  0  0  0  0  0  0
    0.1610    0.8828   -2.3337 H   0  0  0  0  0  0  0  0  0  0  0  0
  1  2  1  0  0  0  0
  1 27  1  0  0  0  0
  1 28  1  0  0  0  0
  1 29  1  0  0  0  0
  2  3  1  0  0  0  0
  2 22  1  0  0  0  0
  2 30  1  6  0  0  0
  3  4  1  0  0  0  0
  3 20  1  0  0  0  0
  3 31  1  1  0  0  0
  4  5  1  0  0  0  0
  4 32  1  0  0  0  0
  4 33  1  0  0  0  0
  5  6  1  0  0  0  0
  5 34  1  0  0  0  0
  5 35  1  0  0  0  0
  6  7  1  0  0  0  0
  6 20  1  0  0  0  0
  6 36  1  6  0  0  0
  7  8  1  0  0  0  0
  7 17  1  0  0  0  0
  7 37  1  6  0  0  0
  8  9  1  0  0  0  0
  8 38  1  0  0  0  0
  8 39  1  0  0  0  0
  9 10  2  0  0  0  0
  9 40  1  0  0  0  0
 10 11  1  0  0  0  0
 10 15  1  0  0  0  0
 11 12  1  0  0  0  0
 11 41  1  0  0  0  0
 11 42  1  0  0  0  0
 12 13  1  0  0  0  0
 12 24  1  0  0  0  0
 12 43  1  6  0  0  0
 13 14  1  0  0  0  0
 13 44  1  0  0  0  0
 13 45  1  0  0  0  0
 14 15  1  0  0  0  0
 14 46  1  0  0  0  0
 14 47  1  0  0  0  0
 15 16  1  1  0  0  0
 15 17  1  0  0  0  0
 16 48  1  0  0  0  0
 16 49  1  0  0  0  0
 16 50  1  0  0  0  0
 17 18  1  0  0  0  0
 17 51  1  1  0  0  0
 18 19  1  0  0  0  0
 18 52  1  0  0  0  0
 18 53  1  0  0  0  0
 19 54  1  0  0  0  0
 19 55  1  0  0  0  0
 20 19  1  1  0  0  0
 20 21  1  0  0  0  0
 21 22  1  0  0  0  0
 21 56  1  0  0  0  0
 21 57  1  0  0  0  0
 22 23  1  0  0  0  0
 22 58  1  1  0  0  0
 23 59  1  0  0  0  0
 23 60  1  0  0  0  0
 23 61  1  0  0  0  0
 24 25  1  0  0  0  0
 24 26  1  0  0  0  0
 24 62  1  0  0  0  0
 25 63  1  0  0  0  0
 25 64  1  0  0  0  0
 25 65  1  0  0  0  0
 26 66  1  0  0  0  0
 26 67  1  0  0  0  0
 26 68  1  0  0  0  0
M  CHG  2  22   1  24   1
M  END
$$$$
Row42
 OpenBabel08252322323D

 36 38  0  0  0  0  0  0  0  0999 V2000
   -0.7964    2.7491    3.2516 C   0  0  0  0  0  0  0  0  0  0  0  0
   -0.6878    3.6983    2.0279 C   0  0  2  0  0  0  0  0  0  0  0  0
   -1.5913    3.4027    0.7913 C   0  0  2  0  0  0  0  0  0  0  0  0
   -3.0499    2.9382    1.0462 C   0  0  0  0  0  0  0  0  0  0  0  0
   -3.1957    1.4022    1.1476 C   0  0  0  0  0  0  0  0  0  0  0  0
   -2.4598    0.6189    0.0052 C   0  0  2  0  0  0  0  0  0  0  0  0
   -3.1315    0.8612   -1.3936 C   0  0  0  0  0  0  0  0  0  0  0  0
   -2.6717   -0.8112    0.2998 C   0  0  0  0  0  0  0  0  0  0  0  0
   -1.6658   -1.6869    0.3721 C   0  0  0  0  0  0  0  0  0  0  0  0
   -0.3659   -1.2810    0.1482 C   0  0  0  0  0  0  0  0  0  0  0  0
    0.5045   -2.1820    0.2195 O   0  0  0  0  0  0  0  0  0  0  0  0
   -0.0345    0.0692   -0.1084 C   0  0  0  0  0  0  0  0  0  0  0  0
    1.3672    0.3760   -0.4280 C   0  0  0  0  0  0  0  0  0  0  0  0
   -1.0142    1.0266   -0.0694 C   0  0  0  0  0  0  0  0  0  0  0  0
   -0.7492    2.4922   -0.1612 C   0  0  2  0  0  0  0  0  0  0  0  0
    0.5628    2.9244    0.2124 O   0  0  0  0  0  0  0  0  0  0  0  0
    0.6263    3.5636    1.3962 C   0  0  0  0  0  0  0  0  0  0  0  0
    1.7028    3.9650    1.8931 O   0  0  0  0  0  0  0  0  0  0  0  0
   -1.7605    2.8579    3.7029 H   0  0  0  0  0  0  0  0  0  0  0  0
   -0.0386    2.9984    3.9647 H   0  0  0  0  0  0  0  0  0  0  0  0
   -0.6650    1.7369    2.9306 H   0  0  0  0  0  0  0  0  0  0  0  0
   -0.9471    4.6311    2.4834 H   0  0  0  0  0  0  0  0  0  0  0  0
   -1.8307    4.3344    0.3228 H   0  0  0  0  0  0  0  0  0  0  0  0
   -3.6621    3.2846    0.2399 H   0  0  0  0  0  0  0  0  0  0  0  0
   -3.3520    3.3473    1.9876 H   0  0  0  0  0  0  0  0  0  0  0  0
   -4.2369    1.1589    1.1067 H   0  0  0  0  0  0  0  0  0  0  0  0
   -2.7416    1.1066    2.0702 H   0  0  0  0  0  0  0  0  0  0  0  0
   -4.1612    0.5735   -1.3494 H   0  0  0  0  0  0  0  0  0  0  0  0
   -2.6295    0.2770   -2.1363 H   0  0  0  0  0  0  0  0  0  0  0  0
   -3.0615    1.8981   -1.6481 H   0  0  0  0  0  0  0  0  0  0  0  0
   -3.6346   -1.1480    0.4561 H   0  0  0  0  0  0  0  0  0  0  0  0
   -1.8621   -2.6747    0.5971 H   0  0  0  0  0  0  0  0  0  0  0  0
    1.9450   -0.5241   -0.3982 H   0  0  0  0  0  0  0  0  0  0  0  0
    1.7525    1.0711    0.2885 H   0  0  0  0  0  0  0  0  0  0  0  0
    1.4243    0.8043   -1.4069 H   0  0  0  0  0  0  0  0  0  0  0  0
   -0.9734    2.6015   -1.2017 H   0  0  0  0  0  0  0  0  0  0  0  0
  1  2  1  0  0  0  0
  1 19  1  0  0  0  0
  1 20  1  0  0  0  0
  1 21  1  0  0  0  0
  2  3  1  0  0  0  0
  2 17  1  0  0  0  0
  2 22  1  1  0  0  0
  3  4  1  0  0  0  0
  3 15  1  0  0  0  0
  3 23  1  6  0  0  0
  4  5  1  0  0  0  0
  4 24  1  0  0  0  0
  4 25  1  0  0  0  0
  5  6  1  0  0  0  0
  5 26  1  0  0  0  0
  5 27  1  0  0  0  0
  6  7  1  6  0  0  0
  6  8  1  0  0  0  0
  6 14  1  0  0  0  0
  7 28  1  0  0  0  0
  7 29  1  0  0  0  0
  7 30  1  0  0  0  0
  8  9  2  0  0  0  0
  8 31  1  0  0  0  0
  9 10  1  0  0  0  0
  9 32  1  0  0  0  0
 10 11  2  0  0  0  0
 10 12  1  0  0  0  0
 12 13  1  0  0  0  0
 12 14  2  0  0  0  0
 13 33  1  0  0  0  0
 13 34  1  0  0  0  0
 13 35  1  0  0  0  0
 14 15  1  0  0  0  0
 15 16  1  0  0  0  0
 15 36  1  6  0  0  0
 16 17  1  0  0  0  0
 17 18  2  0  0  0  0
M  END
$$$$
Row43
 OpenBabel08252322323D

 38 41  0  0  0  0  0  0  0  0999 V2000
    1.2644   -5.3228   -1.8139 C   0  0  0  0  0  0  0  0  0  0  0  0
    1.7008   -4.4202   -0.6295 C   0  0  2  0  0  0  0  0  0  0  0  0
    0.5498   -3.7299    0.1668 C   0  0  2  0  0  0  0  0  0  0  0  0
   -0.7751   -4.5212    0.3633 C   0  0  0  0  0  0  0  0  0  0  0  0
   -1.7411   -3.9002    1.4169 C   0  0  0  0  0  0  0  0  0  0  0  0
   -2.5398   -2.6246    1.0103 C   0  0  2  0  0  0  0  0  0  0  0  0
   -3.9288   -2.4086    1.6705 C   0  0  0  0  0  0  0  0  0  0  0  0
   -2.4847   -2.3029   -0.3868 O   0  0  0  0  0  0  0  0  0  0  0  0
   -1.8060   -1.3834    0.4983 C   0  0  1  0  0  0  0  0  0  0  0  0
   -2.4366    0.0140    0.3874 C   0  0  0  0  0  0  0  0  0  0  0  0
   -1.3195    0.7706   -0.0927 C   0  0  0  0  0  0  0  0  0  0  0  0
   -0.1536    0.1125   -0.1183 C   0  0  0  0  0  0  0  0  0  0  0  0
    1.0901    0.7416   -0.5359 C   0  0  0  0  0  0  0  0  0  0  0  0
   -0.2641   -1.2638    0.3509 C   0  0  2  0  0  0  0  0  0  0  0  0
    0.3818   -2.3617   -0.5538 C   0  0  1  0  0  0  0  0  0  0  0  0
    1.7202   -2.0996   -0.9722 O   0  0  0  0  0  0  0  0  0  0  0  0
    2.4350   -3.2356   -1.0991 C   0  0  0  0  0  0  0  0  0  0  0  0
    3.5942   -3.2531   -1.5705 O   0  0  0  0  0  0  0  0  0  0  0  0
    0.7344   -6.1729   -1.4380 H   0  0  0  0  0  0  0  0  0  0  0  0
    2.1302   -5.6508   -2.3502 H   0  0  0  0  0  0  0  0  0  0  0  0
    0.6277   -4.7670   -2.4701 H   0  0  0  0  0  0  0  0  0  0  0  0
    2.2456   -5.1187   -0.0294 H   0  0  0  0  0  0  0  0  0  0  0  0
    0.8203   -3.6430    1.1984 H   0  0  0  0  0  0  0  0  0  0  0  0
   -0.5293   -5.5140    0.6777 H   0  0  0  0  0  0  0  0  0  0  0  0
   -1.2885   -4.4982   -0.5752 H   0  0  0  0  0  0  0  0  0  0  0  0
   -1.1561   -3.6494    2.2770 H   0  0  0  0  0  0  0  0  0  0  0  0
   -2.4900   -4.6491    1.5692 H   0  0  0  0  0  0  0  0  0  0  0  0
   -4.3268   -3.3521    1.9808 H   0  0  0  0  0  0  0  0  0  0  0  0
   -4.5930   -1.9562    0.9640 H   0  0  0  0  0  0  0  0  0  0  0  0
   -3.8236   -1.7686    2.5216 H   0  0  0  0  0  0  0  0  0  0  0  0
   -2.7753    0.3705    1.3377 H   0  0  0  0  0  0  0  0  0  0  0  0
   -3.3060    0.0614   -0.2345 H   0  0  0  0  0  0  0  0  0  0  0  0
   -1.4068    1.7528   -0.3972 H   0  0  0  0  0  0  0  0  0  0  0  0
    0.8968    1.7511   -0.8334 H   0  0  0  0  0  0  0  0  0  0  0  0
    1.5045    0.1999   -1.3604 H   0  0  0  0  0  0  0  0  0  0  0  0
    1.7836    0.7364    0.2789 H   0  0  0  0  0  0  0  0  0  0  0  0
    0.2944   -1.4459    1.2452 H   0  0  0  0  0  0  0  0  0  0  0  0
   -0.3087   -2.3691   -1.3711 H   0  0  0  0  0  0  0  0  0  0  0  0
  1  2  1  0  0  0  0
  1 19  1  0  0  0  0
  1 20  1  0  0  0  0
  1 21  1  0  0  0  0
  2  3  1  0  0  0  0
  2 17  1  0  0  0  0
  2 22  1  1  0  0  0
  3  4  1  0  0  0  0
  3 15  1  0  0  0  0
  3 23  1  1  0  0  0
  4  5  1  0  0  0  0
  4 24  1  0  0  0  0
  4 25  1  0  0  0  0
  5  6  1  0  0  0  0
  5 26  1  0  0  0  0
  5 27  1  0  0  0  0
  6  7  1  1  0  0  0
  6  8  1  0  0  0  0
  6  9  1  0  0  0  0
  7 28  1  0  0  0  0
  7 29  1  0  0  0  0
  7 30  1  0  0  0  0
  9  8  1  6  0  0  0
  9 10  1  0  0  0  0
  9 14  1  0  0  0  0
 10 11  1  0  0  0  0
 10 31  1  0  0  0  0
 10 32  1  0  0  0  0
 11 12  2  0  0  0  0
 11 33  1  0  0  0  0
 12 13  1  0  0  0  0
 12 14  1  0  0  0  0
 13 34  1  0  0  0  0
 13 35  1  0  0  0  0
 13 36  1  0  0  0  0
 14 15  1  0  0  0  0
 14 37  1  1  0  0  0
 15 16  1  0  0  0  0
 15 38  1  6  0  0  0
 16 17  1  0  0  0  0
 17 18  2  0  0  0  0
M  END
$$$$
Row44
 OpenBabel08252322323D

 37 39  0  0  0  0  0  0  0  0999 V2000
   -0.7357    5.2226    2.3706 C   0  0  0  0  0  0  0  0  0  0  0  0
   -0.6293    3.7610    1.8641 C   0  0  1  0  0  0  0  0  0  0  0  0
   -1.5438    3.4437    0.6420 C   0  0  1  0  0  0  0  0  0  0  0  0
   -0.7094    2.4752   -0.2677 C   0  0  1  0  0  0  0  0  0  0  0  0
    0.6100    2.8726    0.1059 O   0  0  0  0  0  0  0  0  0  0  0  0
    0.6874    3.4562    1.3125 C   0  0  0  0  0  0  0  0  0  0  0  0
    1.7759    3.6680    1.8930 O   0  0  0  0  0  0  0  0  0  0  0  0
   -0.9865    1.0149   -0.1225 C   0  0  0  0  0  0  0  0  0  0  0  0
   -0.0209    0.0403   -0.1549 C   0  0  0  0  0  0  0  0  0  0  0  0
    1.3861    0.3150   -0.4927 C   0  0  0  0  0  0  0  0  0  0  0  0
   -0.3724   -1.2959    0.1392 C   0  0  0  0  0  0  0  0  0  0  0  0
    0.4834   -2.2104    0.2221 O   0  0  0  0  0  0  0  0  0  0  0  0
   -1.6737   -1.6756    0.3943 C   0  0  0  0  0  0  0  0  0  0  0  0
   -2.6652   -0.7841    0.3424 C   0  0  0  0  0  0  0  0  0  0  0  0
   -2.4343    0.6353    0.0211 C   0  0  2  0  0  0  0  0  0  0  0  0
   -3.1780    0.8674   -1.3448 C   0  0  0  0  0  0  0  0  0  0  0  0
   -3.0697    1.4494    1.2005 C   0  0  0  0  0  0  0  0  0  0  0  0
   -2.9898    2.9758    0.9895 C   0  0  1  0  0  0  0  0  0  0  0  0
   -3.5306    3.6331    2.1353 O   0  0  0  0  0  0  0  0  0  0  0  0
   -1.7162    5.3935    2.7633 H   0  0  0  0  0  0  0  0  0  0  0  0
   -0.5544    5.8955    1.5587 H   0  0  0  0  0  0  0  0  0  0  0  0
   -0.0099    5.3874    3.1393 H   0  0  0  0  0  0  0  0  0  0  0  0
   -0.8883    3.2045    2.7405 H   0  0  0  0  0  0  0  0  0  0  0  0
   -1.7831    4.3387    0.1067 H   0  0  0  0  0  0  0  0  0  0  0  0
   -0.9388    2.5664   -1.3088 H   0  0  0  0  0  0  0  0  0  0  0  0
    1.5080    1.3594   -0.6908 H   0  0  0  0  0  0  0  0  0  0  0  0
    1.6608   -0.2471   -1.3607 H   0  0  0  0  0  0  0  0  0  0  0  0
    2.0117    0.0323    0.3280 H   0  0  0  0  0  0  0  0  0  0  0  0
   -1.8825   -2.6589    0.6276 H   0  0  0  0  0  0  0  0  0  0  0  0
   -3.6287   -1.1002    0.5342 H   0  0  0  0  0  0  0  0  0  0  0  0
   -2.7045    0.2902   -2.1113 H   0  0  0  0  0  0  0  0  0  0  0  0
   -3.1356    1.9051   -1.6022 H   0  0  0  0  0  0  0  0  0  0  0  0
   -4.2000    0.5648   -1.2504 H   0  0  0  0  0  0  0  0  0  0  0  0
   -2.5519    1.2022    2.1036 H   0  0  0  0  0  0  0  0  0  0  0  0
   -4.1057    1.1864    1.2501 H   0  0  0  0  0  0  0  0  0  0  0  0
   -3.5795    3.2472    0.1389 H   0  0  0  0  0  0  0  0  0  0  0  0
   -3.0085    3.3993    2.9186 H   0  0  0  0  0  0  0  0  0  0  0  0
  1  2  1  0  0  0  0
  1 20  1  0  0  0  0
  1 21  1  0  0  0  0
  1 22  1  0  0  0  0
  2  3  1  0  0  0  0
  2  6  1  0  0  0  0
  2 23  1  1  0  0  0
  3  4  1  0  0  0  0
  3 18  1  0  0  0  0
  3 24  1  6  0  0  0
  4  5  1  0  0  0  0
  4  8  1  0  0  0  0
  4 25  1  6  0  0  0
  5  6  1  0  0  0  0
  6  7  2  0  0  0  0
  8  9  2  0  0  0  0
  8 15  1  0  0  0  0
  9 10  1  0  0  0  0
  9 11  1  0  0  0  0
 10 26  1  0  0  0  0
 10 27  1  0  0  0  0
 10 28  1  0  0  0  0
 11 12  2  0  0  0  0
 11 13  1  0  0  0  0
 13 14  2  0  0  0  0
 13 29  1  0  0  0  0
 14 15  1  0  0  0  0
 14 30  1  0  0  0  0
 15 16  1  6  0  0  0
 15 17  1  0  0  0  0
 16 31  1  0  0  0  0
 16 32  1  0  0  0  0
 16 33  1  0  0  0  0
 17 18  1  0  0  0  0
 17 34  1  0  0  0  0
 17 35  1  0  0  0  0
 18 19  1  0  0  0  0
 18 36  1  6  0  0  0
 19 37  1  0  0  0  0
M  END
$$$$
Row45
 OpenBabel08252322323D

 44 47  0  0  0  0  0  0  0  0999 V2000
   -3.0351   -1.8684   -4.4049 C   0  0  0  0  0  0  0  0  0  0  0  0
   -2.3990   -0.7720   -3.5068 C   0  0  1  0  0  0  0  0  0  0  0  0
   -3.4170   -0.0766   -2.5646 C   0  0  0  0  0  0  0  0  0  0  0  0
   -2.7581   -0.0201   -1.1457 C   0  0  2  0  0  0  0  0  0  0  0  0
   -3.8352    0.0136   -0.0016 C   0  0  0  0  0  0  0  0  0  0  0  0
   -4.6511   -1.2908    0.1564 C   0  0  0  0  0  0  0  0  0  0  0  0
   -3.7297   -2.5268    0.2123 C   0  0  0  0  0  0  0  0  0  0  0  0
   -2.7428   -2.5948   -0.9190 N   0  3  2  0  0  0  0  0  0  0  0  0
   -1.9592   -3.8840   -0.8850 C   0  0  0  0  0  0  0  0  0  0  0  0
   -0.7657   -3.8680    0.1054 C   0  0  0  0  0  0  0  0  0  0  0  0
    0.0990   -2.5883   -0.0310 C   0  0  0  0  0  0  0  0  0  0  0  0
   -0.7731   -1.2958    0.0032 C   0  0  1  0  0  0  0  0  0  0  0  0
   -0.0035   -0.0223   -0.0381 C   0  0  0  0  0  0  0  0  0  0  0  0
    1.2453   -0.0018   -0.1615 O   0  0  0  0  0  0  0  0  0  0  0  0
   -0.7546    1.2473    0.0367 C   0  0  0  0  0  0  0  0  0  0  0  0
   -1.8699    1.2921   -1.0417 C   0  0  0  0  0  0  0  0  0  0  0  0
   -1.8890   -1.3425   -1.1140 C   0  0  2  0  0  0  0  0  0  0  0  0
   -1.2949   -1.3211   -2.5690 C   0  0  0  0  0  0  0  0  0  0  0  0
   -3.7867   -1.4285   -5.0266 H   0  0  0  0  0  0  0  0  0  0  0  0
   -3.4786   -2.6218   -3.7880 H   0  0  0  0  0  0  0  0  0  0  0  0
   -2.2781   -2.3101   -5.0188 H   0  0  0  0  0  0  0  0  0  0  0  0
   -2.0014   -0.0823   -4.2217 H   0  0  0  0  0  0  0  0  0  0  0  0
   -4.3263   -0.6392   -2.5259 H   0  0  0  0  0  0  0  0  0  0  0  0
   -3.6549    0.9057   -2.9158 H   0  0  0  0  0  0  0  0  0  0  0  0
   -4.5180    0.8106   -0.2100 H   0  0  0  0  0  0  0  0  0  0  0  0
   -3.2989    0.1475    0.9146 H   0  0  0  0  0  0  0  0  0  0  0  0
   -5.3155   -1.3891   -0.6766 H   0  0  0  0  0  0  0  0  0  0  0  0
   -5.1987   -1.2368    1.0741 H   0  0  0  0  0  0  0  0  0  0  0  0
   -4.3401   -3.4051    0.1816 H   0  0  0  0  0  0  0  0  0  0  0  0
   -3.1639   -2.4550    1.1176 H   0  0  0  0  0  0  0  0  0  0  0  0
   -3.2989   -2.6086   -1.7740 H   0  0  0  0  0  0  0  0  0  0  0  0
   -1.5794   -4.0734   -1.8672 H   0  0  0  0  0  0  0  0  0  0  0  0
   -2.6306   -4.6468   -0.5500 H   0  0  0  0  0  0  0  0  0  0  0  0
   -0.1491   -4.7213   -0.0859 H   0  0  0  0  0  0  0  0  0  0  0  0
   -1.1653   -3.8873    1.0978 H   0  0  0  0  0  0  0  0  0  0  0  0
    0.6282   -2.6249   -0.9602 H   0  0  0  0  0  0  0  0  0  0  0  0
    0.7773   -2.5547    0.7958 H   0  0  0  0  0  0  0  0  0  0  0  0
   -1.2428   -1.2923    0.9646 H   0  0  0  0  0  0  0  0  0  0  0  0
   -0.0808    2.0634   -0.1213 H   0  0  0  0  0  0  0  0  0  0  0  0
   -1.2085    1.3209    1.0029 H   0  0  0  0  0  0  0  0  0  0  0  0
   -2.5171    2.1136   -0.8155 H   0  0  0  0  0  0  0  0  0  0  0  0
   -1.3709    1.3900   -1.9831 H   0  0  0  0  0  0  0  0  0  0  0  0
   -0.4346   -0.6859   -2.6044 H   0  0  0  0  0  0  0  0  0  0  0  0
   -0.9939   -2.3025   -2.8707 H   0  0  0  0  0  0  0  0  0  0  0  0
  1  2  1  0  0  0  0
  1 19  1  0  0  0  0
  1 20  1  0  0  0  0
  1 21  1  0  0  0  0
  2  3  1  0  0  0  0
  2 18  1  0  0  0  0
  2 22  1  6  0  0  0
  3 23  1  0  0  0  0
  3 24  1  0  0  0  0
  4  3  1  6  0  0  0
  4  5  1  0  0  0  0
  4 16  1  0  0  0  0
  4 17  1  0  0  0  0
  5  6  1  0  0  0  0
  5 25  1  0  0  0  0
  5 26  1  0  0  0  0
  6  7  1  0  0  0  0
  6 27  1  0  0  0  0
  6 28  1  0  0  0  0
  7  8  1  0  0  0  0
  7 29  1  0  0  0  0
  7 30  1  0  0  0  0
  8  9  1  0  0  0  0
  8 17  1  0  0  0  0
  8 31  1  6  0  0  0
  9 10  1  0  0  0  0
  9 32  1  0  0  0  0
  9 33  1  0  0  0  0
 10 11  1  0  0  0  0
 10 34  1  0  0  0  0
 10 35  1  0  0  0  0
 11 12  1  0  0  0  0
 11 36  1  0  0  0  0
 11 37  1  0  0  0  0
 12 13  1  0  0  0  0
 12 17  1  0  0  0  0
 12 38  1  1  0  0  0
 13 14  2  0  0  0  0
 13 15  1  0  0  0  0
 15 16  1  0  0  0  0
 15 39  1  0  0  0  0
 15 40  1  0  0  0  0
 16 41  1  0  0  0  0
 16 42  1  0  0  0  0
 17 18  1  6  0  0  0
 18 43  1  0  0  0  0
 18 44  1  0  0  0  0
M  CHG  1   8   1
M  END
$$$$
Row46
 OpenBabel08252322323D

 30 31  0  0  0  0  0  0  0  0999 V2000
   -1.6606    0.3408   -2.3903 C   0  0  0  0  0  0  0  0  0  0  0  0
   -2.0973    0.7225   -0.9202 C   0  0  0  0  0  0  0  0  0  0  0  0
   -3.3219    1.6989   -1.1242 C   0  0  0  0  0  0  0  0  0  0  0  0
   -2.3490   -0.4965    0.0415 C   0  0  2  0  0  0  0  0  0  0  0  0
   -2.6835    0.1853    1.4080 C   0  0  0  0  0  0  0  0  0  0  0  0
   -1.6514    1.3473    1.4311 C   0  0  0  0  0  0  0  0  0  0  0  0
   -0.9530    1.2140    0.0344 C   0  0  2  0  0  0  0  0  0  0  0  0
   -0.1906    2.4940   -0.4039 C   0  0  0  0  0  0  0  0  0  0  0  0
   -0.1031   -0.0089    0.1328 C   0  0  0  0  0  0  0  0  0  0  0  0
    1.1478   -0.0315    0.1809 O   0  0  0  0  0  0  0  0  0  0  0  0
   -0.9521   -1.2116    0.1068 C   0  0  1  0  0  0  0  0  0  0  0  0
   -0.5916   -2.3875    1.4702 S   0  0  0  0  0  0  0  0  0  0  0  0
    0.9048   -3.1440    1.1229 O   0  5  0  0  0  0  0  0  0  0  0  0
   -0.4453   -1.6558    2.8865 O   0  0  0  0  0  0  0  0  0  0  0  0
   -1.7150   -3.5264    1.5296 O   0  0  0  0  0  0  0  0  0  0  0  0
   -2.5179    0.0222   -2.9457 H   0  0  0  0  0  0  0  0  0  0  0  0
   -0.9436   -0.4526   -2.3547 H   0  0  0  0  0  0  0  0  0  0  0  0
   -1.2246    1.1944   -2.8659 H   0  0  0  0  0  0  0  0  0  0  0  0
   -4.0279    1.2509   -1.7919 H   0  0  0  0  0  0  0  0  0  0  0  0
   -2.9761    2.6230   -1.5382 H   0  0  0  0  0  0  0  0  0  0  0  0
   -3.7913    1.8843   -0.1807 H   0  0  0  0  0  0  0  0  0  0  0  0
   -3.1150   -1.1895   -0.2375 H   0  0  0  0  0  0  0  0  0  0  0  0
   -2.5350   -0.4866    2.2274 H   0  0  0  0  0  0  0  0  0  0  0  0
   -3.7013    0.5020    1.5015 H   0  0  0  0  0  0  0  0  0  0  0  0
   -0.9480    1.2231    2.2278 H   0  0  0  0  0  0  0  0  0  0  0  0
   -2.0954    2.3070    1.5944 H   0  0  0  0  0  0  0  0  0  0  0  0
   -0.8722    3.3176   -0.4480 H   0  0  0  0  0  0  0  0  0  0  0  0
    0.2430    2.3378   -1.3695 H   0  0  0  0  0  0  0  0  0  0  0  0
    0.5827    2.7085    0.3039 H   0  0  0  0  0  0  0  0  0  0  0  0
   -0.8228   -1.9129   -0.6909 H   0  0  0  0  0  0  0  0  0  0  0  0
  1  2  1  0  0  0  0
  1 16  1  0  0  0  0
  1 17  1  0  0  0  0
  1 18  1  0  0  0  0
  2  3  1  0  0  0  0
  2  4  1  0  0  0  0
  2  7  1  0  0  0  0
  3 19  1  0  0  0  0
  3 20  1  0  0  0  0
  3 21  1  0  0  0  0
  4  5  1  0  0  0  0
  4 11  1  0  0  0  0
  4 22  1  6  0  0  0
  5  6  1  0  0  0  0
  5 23  1  0  0  0  0
  5 24  1  0  0  0  0
  6  7  1  0  0  0  0
  6 25  1  0  0  0  0
  6 26  1  0  0  0  0
  7  8  1  6  0  0  0
  7  9  1  0  0  0  0
  8 27  1  0  0  0  0
  8 28  1  0  0  0  0
  8 29  1  0  0  0  0
  9 10  2  0  0  0  0
  9 11  1  0  0  0  0
 11 12  1  0  0  0  0
 11 30  1  6  0  0  0
 12 13  1  0  0  0  0
 12 14  2  0  0  0  0
 12 15  2  0  0  0  0
M  CHG  1  13  -1
M  END
$$$$
Row47
 OpenBabel08252322323D

 27 28  0  0  0  0  0  0  0  0999 V2000
   -2.5294    2.6769   -1.4419 C   0  0  0  0  0  0  0  0  0  0  0  0
   -1.8355    1.2756   -1.2512 C   0  0  0  0  0  0  0  0  0  0  0  0
   -1.0837    1.0102   -2.6103 C   0  0  0  0  0  0  0  0  0  0  0  0
   -0.8825    1.2854    0.0003 C   0  0  1  0  0  0  0  0  0  0  0  0
   -1.8581    1.2623    1.2123 C   0  0  0  0  0  0  0  0  0  0  0  0
   -3.1053    0.4852    0.7061 C   0  0  0  0  0  0  0  0  0  0  0  0
   -2.8079    0.1112   -0.7862 C   0  0  1  0  0  0  0  0  0  0  0  0
   -4.1193   -0.0349   -1.6194 C   0  0  0  0  0  0  0  0  0  0  0  0
   -2.0160   -1.1767   -0.7559 C   0  0  0  0  0  0  0  0  0  0  0  0
   -2.4708   -2.2759   -1.1475 O   0  0  0  0  0  0  0  0  0  0  0  0
   -0.7255   -1.1512   -0.2798 O   0  0  0  0  0  0  0  0  0  0  0  0
   -0.0884    0.0216    0.0374 C   0  0  0  0  0  0  0  0  0  0  0  0
    1.1266    0.0118    0.3357 O   0  0  0  0  0  0  0  0  0  0  0  0
   -1.8012    3.3959   -1.7543 H   0  0  0  0  0  0  0  0  0  0  0  0
   -2.9639    2.9888   -0.5152 H   0  0  0  0  0  0  0  0  0  0  0  0
   -3.2945    2.5978   -2.1857 H   0  0  0  0  0  0  0  0  0  0  0  0
   -0.4555    1.8455   -2.8394 H   0  0  0  0  0  0  0  0  0  0  0  0
   -1.7999    0.8770   -3.3940 H   0  0  0  0  0  0  0  0  0  0  0  0
   -0.4851    0.1279   -2.5204 H   0  0  0  0  0  0  0  0  0  0  0  0
   -0.2101    2.1177   -0.0075 H   0  0  0  0  0  0  0  0  0  0  0  0
   -2.1256    2.2577    1.4994 H   0  0  0  0  0  0  0  0  0  0  0  0
   -1.4197    0.8036    2.0739 H   0  0  0  0  0  0  0  0  0  0  0  0
   -3.9774    1.1021    0.7676 H   0  0  0  0  0  0  0  0  0  0  0  0
   -3.2897   -0.3866    1.2984 H   0  0  0  0  0  0  0  0  0  0  0  0
   -4.6492    0.8947   -1.6164 H   0  0  0  0  0  0  0  0  0  0  0  0
   -4.7335   -0.7970   -1.1871 H   0  0  0  0  0  0  0  0  0  0  0  0
   -3.8744   -0.3026   -2.6260 H   0  0  0  0  0  0  0  0  0  0  0  0
  1  2  1  0  0  0  0
  1 14  1  0  0  0  0
  1 15  1  0  0  0  0
  1 16  1  0  0  0  0
  2  3  1  0  0  0  0
  2  4  1  0  0  0  0
  2  7  1  0  0  0  0
  3 17  1  0  0  0  0
  3 18  1  0  0  0  0
  3 19  1  0  0  0  0
  4  5  1  0  0  0  0
  4 12  1  0  0  0  0
  4 20  1  1  0  0  0
  5  6  1  0  0  0  0
  5 21  1  0  0  0  0
  5 22  1  0  0  0  0
  6  7  1  0  0  0  0
  6 23  1  0  0  0  0
  6 24  1  0  0  0  0
  7  8  1  6  0  0  0
  7  9  1  0  0  0  0
  8 25  1  0  0  0  0
  8 26  1  0  0  0  0
  8 27  1  0  0  0  0
  9 10  2  0  0  0  0
  9 11  1  0  0  0  0
 11 12  1  0  0  0  0
 12 13  2  0  0  0  0
M  END
$$$$
Row48
 OpenBabel08252322323D

 46 48  0  0  0  0  0  0  0  0999 V2000
    6.4942    3.9222    2.7407 C   0  0  0  0  0  0  0  0  0  0  0  0
    5.4315    2.9912    2.2667 C   0  0  0  0  0  0  0  0  0  0  0  0
    5.8138    1.7785    1.6591 C   0  0  0  0  0  0  0  0  0  0  0  0
    4.8541    0.8996    1.1361 C   0  0  0  0  0  0  0  0  0  0  0  0
    3.4575    1.1493    1.2303 C   0  0  0  0  0  0  0  0  0  0  0  0
    3.0944    2.3690    1.8662 C   0  0  0  0  0  0  0  0  0  0  0  0
    4.0451    3.2950    2.3701 C   0  0  0  0  0  0  0  0  0  0  0  0
    3.5760    4.5643    2.9956 C   0  0  0  0  0  0  0  0  0  0  0  0
    2.5735    0.2128    0.6940 N   0  0  0  0  0  0  0  0  0  0  0  0
    1.1228    0.3827    0.7653 C   0  0  0  0  0  0  0  0  0  0  0  0
    0.5465    1.1532   -0.4613 C   0  0  2  0  0  0  0  0  0  0  0  0
    1.2368    2.3920   -0.6310 O   0  0  0  0  0  0  0  0  0  0  0  0
   -0.9865    1.4273   -0.3521 C   0  0  2  0  0  0  0  0  0  0  0  0
   -1.6848    0.1840   -0.2408 O   0  0  0  0  0  0  0  0  0  0  0  0
   -1.5339    2.2391   -1.5665 C   0  0  1  0  0  0  0  0  0  0  0  0
   -1.3033    1.5124   -2.7743 O   0  0  0  0  0  0  0  0  0  0  0  0
   -3.0379    2.5936   -1.4673 C   0  0  0  0  0  0  0  0  0  0  0  0
   -3.4120    3.4034   -2.5788 O   0  0  0  0  0  0  0  0  0  0  0  0
    3.0714   -0.9143    0.0566 C   0  0  0  0  0  0  0  0  0  0  0  0
    2.2813   -1.8770   -0.5073 N   0  0  0  0  0  0  0  0  0  0  0  0
    2.7765   -2.9859   -1.1169 C   0  0  0  0  0  0  0  0  0  0  0  0
    2.0055   -3.8447   -1.5978 O   0  0  0  0  0  0  0  0  0  0  0  0
    4.1168   -3.1639   -1.1979 N   0  5  0  0  0  0  0  0  0  0  0  0
    4.9783   -2.2578   -0.6762 C   0  0  0  0  0  0  0  0  0  0  0  0
    6.2084   -2.4666   -0.7820 O   0  0  0  0  0  0  0  0  0  0  0  0
    4.4733   -1.1148   -0.0294 C   0  0  0  0  0  0  0  0  0  0  0  0
    5.3041   -0.2080    0.5160 N   0  0  0  0  0  0  0  0  0  0  0  0
    7.4552    3.4870    2.5622 H   0  0  0  0  0  0  0  0  0  0  0  0
    6.3719    4.0991    3.7889 H   0  0  0  0  0  0  0  0  0  0  0  0
    6.4185    4.8490    2.2113 H   0  0  0  0  0  0  0  0  0  0  0  0
    6.8145    1.5336    1.5981 H   0  0  0  0  0  0  0  0  0  0  0  0
    2.0916    2.5913    1.9660 H   0  0  0  0  0  0  0  0  0  0  0  0
    4.4208    5.1371    3.3168 H   0  0  0  0  0  0  0  0  0  0  0  0
    2.9566    4.3389    3.8385 H   0  0  0  0  0  0  0  0  0  0  0  0
    3.0139    5.1279    2.2805 H   0  0  0  0  0  0  0  0  0  0  0  0
    0.8853    0.9282    1.6546 H   0  0  0  0  0  0  0  0  0  0  0  0
    0.6829   -0.5927    0.7701 H   0  0  0  0  0  0  0  0  0  0  0  0
    0.6951    0.5210   -1.3116 H   0  0  0  0  0  0  0  0  0  0  0  0
    1.0917    2.9522    0.1474 H   0  0  0  0  0  0  0  0  0  0  0  0
   -1.1486    2.0223    0.5223 H   0  0  0  0  0  0  0  0  0  0  0  0
   -1.5304   -0.3461   -1.0384 H   0  0  0  0  0  0  0  0  0  0  0  0
   -1.0016    3.1673   -1.5629 H   0  0  0  0  0  0  0  0  0  0  0  0
   -1.7972    0.6780   -2.7489 H   0  0  0  0  0  0  0  0  0  0  0  0
   -3.2183    3.1299   -0.5591 H   0  0  0  0  0  0  0  0  0  0  0  0
   -3.6165    1.6935   -1.4724 H   0  0  0  0  0  0  0  0  0  0  0  0
   -2.8880    4.2197   -2.5750 H   0  0  0  0  0  0  0  0  0  0  0  0
  1  2  1  0  0  0  0
  1 28  1  0  0  0  0
  1 29  1  0  0  0  0
  1 30  1  0  0  0  0
  2  3  2  0  0  0  0
  2  7  1  0  0  0  0
  3  4  1  0  0  0  0
  3 31  1  0  0  0  0
  4  5  2  0  0  0  0
  4 27  1  0  0  0  0
  5  6  1  0  0  0  0
  5  9  1  0  0  0  0
  6  7  2  0  0  0  0
  6 32  1  0  0  0  0
  7  8  1  0  0  0  0
  8 33  1  0  0  0  0
  8 34  1  0  0  0  0
  8 35  1  0  0  0  0
  9 10  1  0  0  0  0
  9 19  1  0  0  0  0
 10 11  1  0  0  0  0
 10 36  1  0  0  0  0
 10 37  1  0  0  0  0
 11 12  1  0  0  0  0
 11 13  1  0  0  0  0
 11 38  1  6  0  0  0
 12 39  1  0  0  0  0
 13 14  1  0  0  0  0
 13 15  1  0  0  0  0
 13 40  1  1  0  0  0
 14 41  1  0  0  0  0
 15 16  1  0  0  0  0
 15 17  1  0  0  0  0
 15 42  1  6  0  0  0
 16 43  1  0  0  0  0
 17 18  1  0  0  0  0
 17 44  1  0  0  0  0
 17 45  1  0  0  0  0
 18 46  1  0  0  0  0
 19 20  2  0  0  0  0
 19 26  1  0  0  0  0
 20 21  1  0  0  0  0
 21 22  2  0  0  0  0
 21 23  1  0  0  0  0
 23 24  1  0  0  0  0
 24 25  2  0  0  0  0
 24 26  1  0  0  0  0
 26 27  2  0  0  0  0
M  CHG  1  23  -1
M  END
$$$$
Row49
 OpenBabel08252322323D

 27 28  0  0  0  0  0  0  0  0999 V2000
   -0.7364    2.0987   -1.2873 C   0  0  0  0  0  0  0  0  0  0  0  0
   -0.9715    1.2037   -0.0275 C   0  0  0  0  0  0  0  0  0  0  0  0
   -0.7180    2.0748    1.2498 C   0  0  0  0  0  0  0  0  0  0  0  0
   -2.3689    0.4684    0.0143 C   0  0  1  0  0  0  0  0  0  0  0  0
   -2.7464   -0.2630   -1.3131 C   0  0  0  0  0  0  0  0  0  0  0  0
   -1.6903   -1.4003   -1.3679 C   0  0  0  0  0  0  0  0  0  0  0  0
   -0.9522   -1.2503   -0.0011 C   0  0  2  0  0  0  0  0  0  0  0  0
   -0.2300   -2.5383    0.4784 C   0  0  0  0  0  0  0  0  0  0  0  0
   -2.0978   -0.7641    0.9109 C   0  0  0  0  0  0  0  0  0  0  0  0
   -0.1213   -0.0144   -0.0340 C   0  0  0  0  0  0  0  0  0  0  0  0
    1.1324    0.0049   -0.0296 O   0  0  0  0  0  0  0  0  0  0  0  0
   -1.3692    2.9600   -1.2361 H   0  0  0  0  0  0  0  0  0  0  0  0
   -0.9661    1.5394   -2.1701 H   0  0  0  0  0  0  0  0  0  0  0  0
    0.2870    2.4094   -1.3181 H   0  0  0  0  0  0  0  0  0  0  0  0
   -1.3453    2.9411    1.2210 H   0  0  0  0  0  0  0  0  0  0  0  0
    0.3078    2.3780    1.2769 H   0  0  0  0  0  0  0  0  0  0  0  0
   -0.9433    1.5002    2.1239 H   0  0  0  0  0  0  0  0  0  0  0  0
   -3.1098    1.1920    0.2834 H   0  0  0  0  0  0  0  0  0  0  0  0
   -2.6578    0.3905   -2.1557 H   0  0  0  0  0  0  0  0  0  0  0  0
   -3.7575   -0.6120   -1.3404 H   0  0  0  0  0  0  0  0  0  0  0  0
   -1.0164   -1.2617   -2.1874 H   0  0  0  0  0  0  0  0  0  0  0  0
   -2.1182   -2.3699   -1.5149 H   0  0  0  0  0  0  0  0  0  0  0  0
   -0.9164   -3.3590    0.4625 H   0  0  0  0  0  0  0  0  0  0  0  0
    0.1311   -2.3946    1.4753 H   0  0  0  0  0  0  0  0  0  0  0  0
    0.5930   -2.7490   -0.1722 H   0  0  0  0  0  0  0  0  0  0  0  0
   -2.9216   -1.4449    0.9637 H   0  0  0  0  0  0  0  0  0  0  0  0
   -1.9093   -0.6196    1.9542 H   0  0  0  0  0  0  0  0  0  0  0  0
  1  2  1  0  0  0  0
  1 12  1  0  0  0  0
  1 13  1  0  0  0  0
  1 14  1  0  0  0  0
  2  3  1  0  0  0  0
  2  4  1  0  0  0  0
  2 10  1  0  0  0  0
  3 15  1  0  0  0  0
  3 16  1  0  0  0  0
  3 17  1  0  0  0  0
  4  5  1  0  0  0  0
  4  9  1  0  0  0  0
  4 18  1  1  0  0  0
  5  6  1  0  0  0  0
  5 19  1  0  0  0  0
  5 20  1  0  0  0  0
  6  7  1  0  0  0  0
  6 21  1  0  0  0  0
  6 22  1  0  0  0  0
  7  8  1  1  0  0  0
  7  9  1  0  0  0  0
  7 10  1  0  0  0  0
  8 23  1  0  0  0  0
  8 24  1  0  0  0  0
  8 25  1  0  0  0  0
  9 26  1  0  0  0  0
  9 27  1  0  0  0  0
 10 11  2  0  0  0  0
M  END
$$$$
